$GROWTH ASPECTS OUTPUT FILE

*DSSAT Cropping System Model Ver. 4.7.1.001 -release      JUL 13, 2018; 14:27:49
                                                                                
*RUN   1        : DRYLAND  - 0 KG N/HA      CSCER047 KSAS8101    1              
 MODEL          : CSCER047 - Wheat                                              
 EXPERIMENT     : KSAS8101 WH N RESPONSE,KANSAS STATE  3FE(N)*2IR  (DSSAT3)     
 DATA PATH      : C:\DSSAT47\Wheat\                                             
 TREATMENT  1   : DRYLAND  - 0 KG N/HA      CSCER047                            
  
@YEAR DOY   DAS   DAP TMEAN TKILL  GSTD  L#SD PARID PARUD  AWAD  LAID  SAID  CAID  TWAD SDWAD  RWAD  CWAD  LWAD  SWAD  HWAD  HIAD CHWAD  EWAD RSWAD SNWPD SNWLD SNWSD  RS%D  H#AD  HWUD  T#AD  SLAD  RDPD  PTFD  SWXD WAVRD WUPRD  WFTD  WFPD  WFGD  NFTD  NFPD  NFGD NUPRD  TFPD  TFGD VRNFD DYLFD
 1981 289    10     0  12.8  -6.0  0.00  0.00  0.00  0.00   0.0  0.00 0.000  0.00    46    46     0     0     0     0     0  0.00     0     0     0     0     0     0   0.0     0     0   162   -99  0.05  0.00   7.4  99.9  1.00  0.00  0.00  0.00  0.00  0.00  0.00   0.0  0.00  0.00  1.00  0.00
 1981 290    11     1  16.1  -6.0  5.58  0.00  0.00  0.00   0.0  0.00 0.000  0.00    46    46     0     0     0     0     0  0.00     0     0     0     0     0     0   0.0     0     0   162   -99  0.05  0.00   8.7  99.9  1.00  0.00  0.00  0.00  0.00  0.00  0.00   0.0  0.00  0.00  1.00  0.00
 1981 291    12     2   9.4  -6.0  6.54  0.00  0.00  0.00   0.0  0.00 0.000  0.00    46    45     1     0     0     0     0  0.00     0     0     0     0     0     0   0.0     0     0   162   -99  0.07  0.00   9.9  99.9  1.00  0.00  0.00  0.00  0.00  0.00  0.00   0.0  0.00  0.06  0.98  0.00
 1981 292    13     3  12.2  -6.0  7.81  0.00  0.00  0.00   0.0  0.00 0.000  0.00    46    44     2     0     0     0     0  0.00     0     0     0     0     0 .0004   0.0     0     0   162   -99  0.09  0.00  11.8  99.9  1.00  0.00  0.00  0.00  0.00  0.00  0.00   1.8  0.00  0.00  0.98  0.00
 1981 293    14     4  17.5  -6.0  9.69  0.00  0.00  0.00   0.0  0.00 0.000  0.00    46    43     3     0     0     0     0  0.00     0     0     0     0     0 .0019   0.0     0     0   162   -99  0.11  0.00  14.9  99.9  1.00  0.00  0.00  0.00  0.00  0.00  0.00   2.0  0.00  0.00  0.98  0.00
 1981 294    15     5  11.7  -6.0 10.00  0.00  0.00  0.00   0.0  0.00 0.000  0.00    46    42     4     0     0     0     0  0.00     0     0     0     0     0 .0036   0.0     0     0   162   -99  0.13  0.00  16.8  99.9  1.00  0.00  0.00  0.00  0.00  0.00  0.00   2.0  0.00  0.00  0.97  0.00
 1981 295    16     6   6.2  -7.1 10.13  0.13  0.00  0.00   0.0  0.00 0.000  0.00    46    41     4     1     1     0     0  0.00     0     0     0     0     0 .0048   0.0     0     0   162   400  0.14  0.75  17.4  99.9  1.00  0.00  0.00  0.00  0.00  0.00  0.00   2.0  0.00  0.38  0.95  0.50
 1981 296    17     7   1.9  -8.5 10.17  0.17  0.00  0.90   0.1  0.00 0.000  0.00    46    40     5     1     1     0     0  0.00     0     0     0     0     0 .0053   9.6     0     0   162   399  0.14  0.75  17.1  99.9 15.00  0.00  0.00  0.00  0.00  0.00  0.00   2.0  0.61  0.81  0.92  0.50
 1981 297    18     8   6.1  -9.5 10.30  0.30  0.00  2.32   0.1  0.01 0.000  0.01    46    39     5     2     1     1     0  0.00     0     0     0     0     0 .0066   9.7     0     0   162   399  0.15  0.75  17.8  99.9 15.00  0.00  0.00  0.00  0.00  0.00  0.00   2.0  0.00  0.39  0.90  0.51
 1981 298    19     9   8.4 -10.0 10.47  0.47  0.01  2.32   0.3  0.01 0.001  0.01    47    37     6     4     3     2     0  0.00     0     0     0     0     0 .0087  10.5     0     0   162   399  0.16  0.75  21.5  99.9 15.00  0.00  0.00  0.00  0.00  0.00  0.00   1.3  0.00  0.16  0.88  0.51
 1981 299    20    10   7.8 -10.5 10.64  0.64  0.01  2.32   1.3  0.01 0.001  0.02    48    35     6     7     4     3     0  0.00     0     0     1     0     0 .0109  20.9     0     0   162   399  0.17  0.75  22.8  99.9  9.54  0.00  0.00  0.00  0.00  0.00  0.00   2.0  0.00  0.22  0.86  0.52
 1981 300    21    11  13.7 -10.4 10.93  0.93  0.02  2.32   1.8  0.02 0.002  0.03    49    31     7    12     6     6     0  0.00     0     0     3     0     0 .0150  24.0     0     0   162   399  0.19  0.75  24.4  99.9  6.36  0.00  0.00  0.00  0.00  0.00  0.00   1.0  0.00  0.00  0.86  0.52
 1981 301    22    12  16.2 -10.2 11.27  1.27  0.03  2.32   2.8  0.04 0.003  0.04    52    26     8    18     9     9     0  0.00     0     0     5     0     0 .0205  26.6     0     0   162   399  0.21  0.75  26.4  99.9  4.60  0.00  0.00  0.00  0.00  0.00  0.00   0.8  0.00  0.00  0.86  0.53
 1981 302    23    13  17.5 -10.0 11.63  1.63  0.04  2.32   4.3  0.05 0.004  0.05    56    20     9    27    13    14     0  0.00     0     0     8     0     0 .0274  30.2     0     0   162   397  0.23  0.75  28.6  99.9  3.33  0.00  0.00  0.00  0.00  0.00  0.00   0.8  0.00  0.00  0.86  0.53
 1981 303    24    14  16.1  -9.9 11.97  1.97  0.05  2.32   1.4  0.06 0.005  0.07    57    15    10    32    16    16     0  0.00     0     0     9     0     0 .0347  26.7     0     0   162   395  0.25  0.75  30.8  99.9 12.40  0.00  0.00  0.00  0.00  0.00  0.00   0.9  0.00  0.00  0.86  0.53
 1981 304    25    15  13.9  -9.8 12.13  2.13  0.06  2.32   1.1  0.07 0.006  0.07    58    12    11    35    17    17     0  0.00     0     0     9     0     0 .0416  25.1     0     0   162   395  0.27  0.75  33.4  99.9 15.00  0.00  0.00  0.00  0.00  0.00  0.00   1.8  0.00  0.00  0.86  0.54
 1981 305    26    16  12.2  -9.7 12.26  2.26  0.06  2.32   1.9  0.07 0.007  0.08    60    11    12    37    19    18     0  0.00     0     0     9     0     0 .0483  24.0     0     0   162   394  0.29  0.75  51.4  99.9 11.91  0.00  0.00  0.00  0.00  0.00  0.00   2.0  0.00  0.00  0.85  0.54
 1981 306    27    17  10.2  -9.7 12.37  2.37  0.07  2.32   2.0  0.08 0.007  0.09    61    10    12    39    20    19     0  0.00     0     0     9     0     0 .0543  23.1     0     0   162   393  0.30  0.75  53.0  99.9 12.43  0.00  0.00  0.00  0.00  0.00  0.00   2.0  0.00  0.00  0.83  0.55
 1981 307    28    18  11.4  -9.6 12.49  2.49  0.07  2.32   4.7  0.08 0.007  0.09    66    10    13    43    21    21     0  0.00     0     0    11     0     0 .0613  25.1     0     0   162   392  0.31  0.75  52.1  99.9  5.40  0.00  0.00  0.00  0.00  0.00  0.00   2.0  0.00  0.00  0.82  0.55
 1981 308    29    19  10.2  -9.6 12.60  2.60  0.07  2.32   2.9  0.09 0.008  0.10    68    10    13    45    23    22     0  0.00     0     0    11     0     0 .0680  24.9     0     0   162   392  0.32  0.75  56.8  99.9  9.69  0.00  0.00  0.00  0.00  0.00  0.00   2.0  0.00  0.00  0.81  0.56
 1981 309    30    20  10.6  -9.5 12.71  2.71  0.08  2.32  10.3  0.09 0.008  0.10    77     9    15    53    24    29     0  0.00     0     0    17     0     0 .0752  32.4     0     0   162   391  0.33  0.75  55.7  99.9  2.73  0.00  0.00  0.00  0.00  0.00  0.00   2.0  0.00  0.00  0.80  0.56
 1981 310    31    21   6.7 -10.3 12.78  2.78  0.08  2.32  11.3  0.10 0.008  0.10    88     9    17    62    24    37     0  0.00     0     0    25     0     0 .0802  40.6     0     0   162   391  0.33  0.75  52.3  99.9  2.99  0.00  0.00  0.00  0.00  0.00  0.00   2.0  0.00  0.33  0.78  0.56
 1981 311    32    22   9.7 -10.3 12.88  2.88  0.08  2.32   8.3  0.10 0.009  0.11    95     9    18    68    26    42     0  0.00     0     0    30     0     0 .0883  43.7     0     0   162   390  0.34  0.75  51.9  99.9  4.20  0.00  0.00  0.00  0.00  0.00  0.00   2.0  0.00  0.03  0.76  0.57
 1981 312    33    23  10.9 -10.2 13.00  3.00  0.09  2.32   1.0  0.10 0.009  0.11    96     9    18    69    27    42     0  0.00     0     0    29     0     0 .0980  41.6     0     0   162   390  0.35  0.75  61.2  99.9 15.00  0.00  0.00  0.00  0.00  0.00  0.00   2.0  0.00  0.00  0.75  0.57
 1981 313    34    24   2.5 -11.6 13.02  3.02  0.09  1.16   6.2  0.11 0.009  0.11   102     9    19    73    27    46     0  0.00     0     0    33     0     0 0.100  45.1     0     0   162   390  0.35  0.75  60.1  99.9  3.77  0.00  0.00  0.00  0.00  0.00  0.00   2.0  0.50  0.75  0.73  0.57
 1981 314    35    25   5.6 -12.8 13.08  3.08  0.09  2.32  11.8  0.11 0.009  0.12   112     9    21    82    27    55     0  0.00     0     0    41     0     0 0.106  50.3     0     0   162   390  0.36  0.75  55.8  99.9  3.75  0.00  0.00  0.00  0.00  0.00  0.00   2.0  0.00  0.44  0.71  0.58
 1981 315    36    26   7.5 -13.4 13.16  3.16  0.09  2.32  11.5  0.11 0.010  0.12   123     9    22    91    28    63     0  0.00     0     0    49     0     0 0.113  53.7     0     0   162   389  0.36  0.75  54.4  99.9  4.04  0.00  0.00  0.00  0.00  0.00  0.00   2.0  0.00  0.25  0.69  0.58
 1981 316    37    27  10.9 -13.2 13.27  3.27  0.09  2.32  11.4  0.12 0.010  0.13   133     9    24   100    30    70     0  0.00     0     0    55     0     0 0.126  55.5     0     0   162   388  0.37  0.75  53.8  99.9  4.02  0.00  0.00  0.00  0.00  0.00  0.00   2.0  0.00  0.00  0.67  0.59
 1981 317    38    28  10.6 -13.1 13.38  3.38  0.10  2.32  11.8  0.12 0.011  0.13   144     9    26   108    31    77     0  0.00     0     0    62     0     0 0.138  57.1     0     0   162   388  0.38  0.75  53.2  99.9  4.24  0.00  0.00  0.00  0.00  0.00  0.00   2.0  0.00  0.00  0.66  0.59
 1981 318    39    29  13.0 -13.0 13.52  3.52  0.10  2.32   8.9  0.13 0.011  0.14   152     9    27   115    33    82     0  0.00     0     0    66     0     0 0.155  57.2     0     0   162   387  0.39  0.75  53.2  99.9  5.77  0.00  0.00  0.00  0.00  0.00  0.00   2.0  0.00  0.00  0.66  0.59
 1981 319    40    30  15.0 -12.9 13.68  3.68  0.11  2.32  10.1  0.14 0.012  0.15   161     9    29   123    35    88     0  0.00     0     0    70     0     0 0.176  57.3     0     0   162   386  0.41  0.75  53.2  99.9  5.14  0.00  0.00  0.00  0.00  0.00  0.00   2.0  0.00  0.00  0.66  0.60
 1981 320    41    31  17.5 -12.7 13.86  3.86  0.12  2.32  13.7  0.14 0.013  0.16   173     9    31   133    38    96     0  0.00     0     0    77     0     0 0.201  57.9     0     0   162   385  0.42  0.75  53.8  99.9  3.83  0.00  0.00  0.00  0.00  0.00  0.00   1.9  0.00  0.00  0.66  0.60
 1981 321    42    32  12.8 -12.5 14.00  4.00  0.12  2.32  13.9  0.15 0.014  0.16   186     9    33   144    39   104     0  0.00     0     0    85     0     0 0.220  59.1     0     0   162   384  0.43  0.75  54.0  99.9  4.35  0.00  0.00  0.00  0.00  0.00  0.00   2.0  0.00  0.00  0.65  0.60
 1981 322    43    33  14.1 -12.4 14.15  4.15  0.13  2.32   9.5  0.16 0.014  0.17   194     9    34   151    42   109     0  0.00     0     0    89     0     0 0.243  58.8     0     0   162   384  0.44  0.75  54.5  99.9  6.79  0.00  0.00  0.00  0.00  0.00  0.00   2.0  0.00  0.00  0.65  0.61
 1981 323    44    34   4.1 -13.8 14.19  4.19  0.13  1.92   2.8  0.16 0.014  0.17   196     9    34   153    42   111     0  0.00     0     0    91     0 0.219 0.250  59.4     0     0   162   383  0.45  0.76  54.5  99.9 15.00  0.00  0.00  0.00  0.00  0.00  0.00   2.0  0.17  0.59  0.63  0.61
 1981 324    45    35   0.0 -15.2 14.19  4.19  0.13  0.00   0.0  0.16 0.014  0.17   196     9    34   153    42   111     0  0.00     0     0    91     0 0.219 0.250  59.4     0     0   162   383  0.45  0.76  53.8  99.9 10.27  0.00  0.00  0.00  0.00  0.00  0.00   2.0  1.00  1.00  0.60  0.61
 1981 325    46    36   2.5 -16.6 14.22  4.22  0.13  1.16   7.4  0.16 0.014  0.17   203     9    36   158    41   117     0  0.00     0     0    96     0 0.351 0.255  60.8     0     0   162   383  0.45  0.76  53.3  99.9  5.44  0.00  0.00  0.00  0.00  0.00  0.00   2.0  0.50  0.75  0.58  0.62
 1981 326    47    37   7.0 -17.4 14.29  4.29  0.13  2.32  10.3  0.16 0.014  0.17   212     9    37   166    42   124     0  0.00     0     0   103     0 0.719 0.267  62.3     0     0   162   383  0.45  0.76  53.3  99.9  6.68  0.00  0.00  0.00  0.00  0.00  0.00   2.0  0.00  0.30  0.56  0.62
 1981 327    48    38  10.6 -17.3 14.40  4.40  0.13  2.32  13.4  0.16 0.015  0.18   223     9    39   175    43   132     0  0.00     0     0   111     0 1.277 0.286  63.5     0     0   162   382  0.46  0.76  53.6  99.9  4.90  0.00  0.00  0.00  0.00  0.00  0.00   2.0  0.00  0.00  0.55  0.62
 1981 328    49    39   6.4 -18.3 14.47  4.47  0.13  2.32  12.0  0.16 0.015  0.18   234     9    41   184    43   141     0  0.00     0     0   120     0 1.616 0.299  65.1     0     0   162   382  0.47  0.76  53.6  99.9  6.29  0.00  0.00  0.00  0.00  0.00  0.00   2.0  0.00  0.36  0.52  0.62
 1981 329    50    40  12.2 -18.1 14.60  4.60  0.13  2.32  12.8  0.17 0.015  0.18   245     9    43   193    44   149     0  0.00     0     0   127     0 2.263 0.324  65.8     0     0   162   381  0.48  0.76  54.1  99.9  5.28  0.00  0.00  0.00  0.00  0.00  0.00   2.0  0.00  0.00  0.52  0.63
 1981 330    51    41   6.7 -19.1 14.67  4.67  0.13  2.32   9.6  0.17 0.015  0.18   253     9    44   200    44   155     0  0.00     0     0   133     0 2.616 0.338  66.8     0     0   171   380  0.48  0.76  54.2  99.9  8.69  0.00  0.00  0.00  0.00  0.00  0.00   2.0  0.00  0.33  0.49  0.63
 1981 331    52    42  -0.8 -20.0 14.67  4.67  0.13  0.00   0.0  0.17 0.015  0.18   253     9    44   200    44   155     0  0.00     0     0   133     0 2.616 0.338  66.8     0     0   171   380  0.48  0.76  53.8  99.9 12.04  0.00  0.00  0.00  0.00  0.00  0.00   2.0  1.00  1.00  0.48  0.63
 1981 332    53    43   2.5 -20.0 14.69  4.69  0.13  1.16   4.2  0.17 0.015  0.18   257     9    45   203    44   158     0  0.00     0     0   137     0 2.749 0.343  67.4     0     0   174   380  0.48  0.76  53.8  99.9 11.56  0.00  0.00  0.00  0.00  0.00  0.00   2.0  0.50  0.75  0.45  0.64
 1981 333    54    44   3.0 -20.0 14.73  4.73  0.13  1.41   4.3  0.17 0.015  0.18   260     9    45   206    44   162     0  0.00     0     0   140     0 2.912 0.350  67.9     0     0   179   380  0.49  0.76  53.9  99.9 13.34  0.00  0.00  0.00  0.00  0.00  0.00   2.0  0.39  0.70  0.43  0.64
 1981 334    55    45   5.9 -20.0 14.79  4.79  0.13  2.32   1.1  0.17 0.015  0.18   261     9    45   206    44   162     0  0.00     0     0   140     0 3.223 0.363  67.8     0     0   187   380  0.49  0.76  73.1  99.9 15.00  0.00  0.00  0.00  0.00  0.00  0.00   2.0  0.00  0.41  0.41  0.64
 1981 335    56    46   2.2 -20.0 14.81  4.81  0.13  1.02   1.9  0.17 0.015  0.18   263     9    46   208    44   163     0  0.00     0     0   141     0 3.340 0.368  68.1     0     0   190   380  0.49  0.76  79.5  99.9 15.00  0.00  0.00  0.00  0.00  0.00  0.00   2.0  0.56  0.78  0.39  0.64
 1981 336    57    47   3.6 -20.0 14.85  4.85  0.13  1.67   8.9  0.17 0.015  0.18   270     9    47   214    44   170     0  0.00     0     0   148     0 3.531 0.377  69.1     0     0   195   380  0.50  0.76  73.4  99.9  9.25  0.00  0.00  0.00  0.00  0.00  0.00   2.0  0.28  0.64  0.36  0.64
 1981 337    58    48   4.5 -20.0 14.90  4.90  0.13  2.06  13.5  0.17 0.015  0.18   282     9    49   224    44   180     0  0.00     0     0   158     0 3.768 0.387  70.4     0     0   201   379  0.50  0.76  71.0  99.9  7.59  0.00  0.00  0.00  0.00  0.00  0.00   2.0  0.11  0.55  0.34  0.65
 1981 338    59    49   3.9 -20.0 14.94  4.94  0.13  1.81  11.9  0.17 0.015  0.18   293     9    51   233    44   189     0  0.00     0     0   167     0 3.976 0.397  71.5     0     0   206   379  0.50  0.76  70.1  99.9  8.02  0.00  0.00  0.00  0.00  0.00  0.00   2.0  0.22  0.61  0.32  0.65
 1981 339    60    50   3.9 -20.0 14.98  4.98  0.13  1.81   4.2  0.17 0.015  0.18   297     9    51   236    44   192     0  0.00     0     0   170     0 4.184 0.406  71.9     0     0   211   379  0.51  0.76  70.0  99.9 15.00  0.00  0.00  0.00  0.00  0.00  0.00   2.0  0.22  0.61  0.30  0.65
 1981 340    61    51   8.9 -20.0 15.07  5.07  0.14  2.32  10.7  0.17 0.016  0.19   306     9    53   244    46   198     0  0.00     0     0   175     0 4.658 0.429  72.0     0     0   223   379  0.51  0.76  69.7  99.9 10.41  0.00  0.00  0.00  0.00  0.00  0.00   2.0  0.00  0.11  0.28  0.65
 1981 341    62    52  11.7 -20.0 15.19  5.19  0.14  2.32  14.2  0.18 0.016  0.20   318     9    55   254    47   206     0  0.00     0     0   183     0 5.553 0.460  72.1     0     0   239   377  0.52  0.76  69.4  99.9  7.56  0.00  0.00  0.00  0.00  0.00  0.00   2.0  0.00  0.00  0.27  0.65
 1981 342    63    53   3.7 -20.0 15.23  5.23  0.14  1.69   9.4  0.18 0.016  0.19   326     9    56   260    47   213     0  0.00     0     0   190     0 5.834 0.470  72.8     0     0   244   377  0.53  0.76  68.7  99.9 10.71  0.00  0.00  0.00  0.00  0.00  0.00   2.0  0.27  0.63  0.25  0.66
 1981 343    64    54   2.2 -20.0 15.26  5.26  0.14  1.04   6.3  0.18 0.016  0.19   331     9    57   265    47   218     0  0.00     0     0   194     0 6.007 0.476  73.3     0     0   247   377  0.53  0.76  67.8  99.9 10.71  0.00  0.00  0.00  0.00  0.00  0.00   2.0  0.55  0.77  0.23  0.66
 1981 344    65    55  -0.3 -20.0 15.26  5.26  0.14  0.00   0.0  0.18 0.016  0.19   331     9    57   265    47   218     0  0.00     0     0   194     0 6.007 0.476  73.3     0     0   247   376  0.53  0.76  67.7  99.9 15.00  0.00  0.00  0.00  0.00  0.00  0.00   2.0  1.00  1.00  0.21  0.66
 1981 345    66    56   2.5 -20.0 15.28  5.28  0.14  1.16   1.5  0.18 0.016  0.19   332     9    57   266    47   219     0  0.00     0     0   195     0 6.199 0.484  73.5     0     0   251   376  0.53  0.76  67.7  99.9 15.00  0.00  0.00  0.00  0.00  0.00  0.00   2.0  0.50  0.75  0.18  0.66
 1981 346    67    57   2.8 -20.0 15.31  5.31  0.14  1.30   1.5  0.18 0.016  0.19   334     9    57   267    47   220     0  0.00     0     0   196     0 6.414 0.492  73.6     0     0   255   376  0.53  0.76  67.8  99.9 15.00  0.00  0.00  0.00  0.00  0.00  0.00   2.0  0.44  0.72  0.16  0.66
 1981 347    68    58   2.5 -20.0 15.34  5.34  0.14  1.16   1.1  0.18 0.016  0.19   334     9    58   267    47   220     0  0.00     0     0   197     0 6.606 0.499  73.7     0     0   258   376  0.53  0.76  67.9  99.9 15.00  0.00  0.00  0.00  0.00  0.00  0.00   2.0  0.50  0.75  0.14  0.66
 1981 348    69    59   0.5 -20.0 15.34  5.34  0.14  0.25   1.5  0.18 0.016  0.19   336     9    58   269    47   222     0  0.00     0     0   198     0 6.649 0.500  73.8     0     0   259   376  0.54  0.76  67.8  99.9 15.00  0.00  0.00  0.00  0.00  0.00  0.00   2.0  0.89  0.94  0.12  0.66
 1981 349    70    60   0.0 -20.0 15.34  5.34  0.14  0.00   0.0  0.18 0.016  0.19   336     9    58   269    47   222     0  0.00     0     0   198     0 6.649 0.500  73.8     0     0   259   376  0.54  0.76  67.5  99.9 15.00  0.00  0.00  0.00  0.00  0.00  0.00   2.0  1.00  1.00  0.10  0.66
 1981 350    71    61  -4.7 -20.0 15.34  5.34  0.14  0.00   0.0  0.18 0.016  0.19   336     9    58   269    47   222     0  0.00     0     0   198     0 6.649 0.500  73.8     0     0   259   376  0.54  0.76  67.5  99.9 15.00  0.00  0.00  0.00  0.00  0.00  0.00   2.0  1.00  1.00  0.09  0.66
 1981 351    72    62 -12.5 -20.0 15.34  5.34  0.07  0.00   0.0  0.09 0.008  0.10   202     9    58   135    24   111     0  0.00     0     0    99     0 41.33 0.500  73.6     0     0   259   376  0.54  0.76  67.4  99.9 15.00  0.00  0.00  0.00  0.00  0.00  0.00   2.0  1.00  1.00  0.07  0.67
 1981 352    73    63 -13.6 -20.0 15.34  5.34  0.02  0.00   0.0  0.02 0.002  0.03   105     9    58    38     7    32     0  0.00     0     0    28     0 66.30 0.500  72.3     0     0   259   376  0.54  0.76  67.4  99.9 15.00  0.00  0.00  0.00  0.00  0.00  0.00   2.0  1.00  1.00  0.05  0.67
 1981 353    74    64 -11.4 -20.0 15.34  5.34  0.02  0.00   0.0  0.02 0.002  0.02    95     9    58    28     5    23     0  0.00     0     0    20     0 69.02 0.500  71.6     0     0   259   376  0.54  0.76  67.3  99.9 15.00  0.00  0.00  0.00  0.00  0.00  0.00   2.0  1.00  1.00  0.03  0.67
 1981 354    75    65  -4.2 -20.0 15.34  5.34  0.02  0.00   0.0  0.02 0.002  0.02    95     9    58    28     5    23     0  0.00     0     0    20     0 69.02 0.500  71.6     0     0   259   376  0.54  0.76  69.9  99.9 15.00  0.00  0.00  0.00  0.00  0.00  0.00   2.0  1.00  1.00  0.01  0.67
 1981 355    76    66   2.0 -20.0 15.36  5.36  0.02  0.90   0.1  0.02 0.002  0.02    95     9    58    28     5    23     0  0.00     0     0    20     0 69.02 0.506  71.1     0     0   261   376  0.54  0.76  72.0  99.9 15.00  0.00  0.00  0.00  0.00  0.00  0.00   2.0  0.61  0.81  0.00  0.67
 1981 356    77    67   1.7 -20.0 15.38  5.38  0.02  0.79   0.1  0.02 0.002  0.02    95     9    58    28     5    23     0  0.00     0     0    20     0 69.02 0.511  70.8     0     0   264   375  0.54  0.76  72.1  99.9 15.00  0.00  0.00  0.00  0.00  0.00  0.00   2.0  0.66  0.83  0.00  0.67
 1981 357    78    68  -1.1 -20.0 15.38  5.38  0.02  0.00   0.0  0.02 0.002  0.02    95     9    58    28     5    23     0  0.00     0     0    20     0 69.02 0.511  70.8     0     0   264   375  0.54  0.76  71.0  99.9 15.00  0.00  0.00  0.00  0.00  0.00  0.00   2.0  1.00  1.00  0.00  0.67
 1981 358    79    69  -0.3 -20.0 15.38  5.38  0.02  0.00   0.0  0.02 0.002  0.02    95     9    58    28     5    23     0  0.00     0     0    20     0 69.02 0.511  70.8     0     0   264   375  0.54  0.76  70.0  99.9 15.00  0.00  0.00  0.00  0.00  0.00  0.00   2.0  1.00  1.00  0.00  0.67
 1981 359    80    70   1.6 -20.0 15.40  5.40  0.02  0.76   0.4  0.02 0.002  0.02    95     9    58    28     5    23     0  0.00     0     0    20     0 69.02 0.516  70.7     0     0   266   375  0.54  0.76  69.2  99.9 15.00  0.00  0.00  0.00  0.00  0.00  0.00   2.0  0.67  0.84  0.00  0.67
 1981 360    81    71  -1.7 -20.0 15.40  5.40  0.02  0.00   0.0  0.02 0.002  0.02    95     9    58    28     5    23     0  0.00     0     0    20     0 69.02 0.516  70.7     0     0   266   375  0.54  0.76  68.6  99.9 15.00  0.00  0.00  0.00  0.00  0.00  0.00   2.0  1.00  1.00  0.00  0.67
 1981 361    82    72  -3.1 -20.0 15.40  5.40  0.02  0.00   0.0  0.02 0.002  0.02    95     9    58    28     5    23     0  0.00     0     0    20     0 69.02 0.516  70.7     0     0   266   375  0.54  0.76  68.5  99.9 15.00  0.00  0.00  0.00  0.00  0.00  0.00   2.0  1.00  1.00  0.00  0.67
 1981 362    83    73  -4.4 -20.0 15.40  5.40  0.02  0.00   0.0  0.02 0.002  0.02    95     9    58    28     5    23     0  0.00     0     0    20     0 69.02 0.516  70.7     0     0   266   375  0.54  0.76  68.2  99.9 15.00  0.00  0.00  0.00  0.00  0.00  0.00   2.0  1.00  1.00  0.00  0.66
 1981 363    84    74  -3.6 -20.0 15.40  5.40  0.02  0.00   0.0  0.02 0.002  0.02    95     9    58    28     5    23     0  0.00     0     0    20     0 69.02 0.516  70.7     0     0   266   375  0.54  0.76  67.6  99.9 15.00  0.00  0.00  0.00  0.00  0.00  0.00   2.0  1.00  1.00  0.00  0.66
 1981 364    85    75   1.7 -20.0 15.42  5.42  0.02  0.79   0.4  0.02 0.002  0.02    96     9    58    29     5    24     0  0.00     0     0    20     0 69.02 0.521  70.6     0     0   268   375  0.54  0.76  67.0  99.9 15.00  0.00  0.00  0.00  0.00  0.00  0.00   2.0  0.66  0.83  0.00  0.66
 1981 365    86    76   0.0 -20.0 15.42  5.42  0.02  0.00   0.0  0.02 0.002  0.02    96     9    58    29     5    24     0  0.00     0     0    20     0 69.02 0.521  70.6     0     0   268   374  0.54  0.76  66.3  99.9 15.00  0.00  0.00  0.00  0.00  0.00  0.00   2.0  1.00  1.00  0.00  0.66
 1982   1    87    77  -6.1 -20.0 15.42  5.42  0.02  0.00   0.0  0.02 0.002  0.02    96     9    58    29     5    24     0  0.00     0     0    20     0 69.02 0.521  70.6     0     0   268   374  0.54  0.76  66.2  99.9 15.00  0.00  0.00  0.00  0.00  0.00  0.00   2.0  1.00  1.00  0.00  0.66
 1982   2    88    78   0.8 -20.0 15.43  5.43  0.02  0.39   0.0  0.02 0.002  0.02    96     9    58    29     5    24     0  0.00     0     0    20     0 69.02 0.523  70.5     0     0   269   374  0.54  0.76  68.2  99.9 15.00  0.00  0.00  0.00  0.00  0.00  0.00   2.0  0.83  0.92  0.00  0.66
 1982   3    89    79  -6.3 -20.0 15.43  5.43  0.02  0.00   0.0  0.02 0.002  0.02    96     9    58    29     5    24     0  0.00     0     0    20     0 69.02 0.523  70.5     0     0   269   374  0.54  0.76  68.1  99.9 15.00  0.00  0.00  0.00  0.00  0.00  0.00   2.0  1.00  1.00  0.00  0.66
 1982   4    90    80  -6.1 -20.0 15.43  5.43  0.02  0.00   0.0  0.02 0.002  0.02    96     9    58    29     5    24     0  0.00     0     0    20     0 69.02 0.523  70.5     0     0   269   374  0.54  0.76  73.1  99.9 15.00  0.00  0.00  0.00  0.00  0.00  0.00   2.0  1.00  1.00  0.00  0.66
 1982   5    91    81  -1.6 -20.0 15.43  5.43  0.02  0.00   0.0  0.02 0.002  0.02    96     9    58    29     5    24     0  0.00     0     0    20     0 69.02 0.523  70.5     0     0   269   374  0.54  0.76  72.0  99.9 15.00  0.00  0.00  0.00  0.00  0.00  0.00   2.0  1.00  1.00  0.00  0.66
 1982   6    92    82 -10.9 -20.0 15.43  5.43  0.01  0.00   0.0  0.02 0.002  0.02    91     9    58    24     4    20     0  0.00     0     0    17     0 70.30 0.523  70.0     0     0   269   374  0.54  0.76  72.0  99.9 15.00  0.00  0.00  0.00  0.00  0.00  0.00   2.0  1.00  1.00  0.00  0.65
 1982   7    93    83 -11.4 -20.0 15.43  5.43  0.01  0.00   0.0  0.01 0.001  0.01    85     9    58    18     3    14     0  0.00     0     0    12     0 72.06 0.523  69.0     0     0   269   374  0.54  0.76  71.9  99.9 15.00  0.00  0.00  0.00  0.00  0.00  0.00   2.0  1.00  1.00  0.00  0.65
 1982   8    94    84  -2.8 -20.0 15.43  5.43  0.01  0.00   0.0  0.01 0.001  0.01    85     9    58    18     3    14     0  0.00     0     0    12     0 72.06 0.523  69.0     0     0   269   374  0.54  0.76  70.8  99.9 15.00  0.00  0.00  0.00  0.00  0.00  0.00   2.0  1.00  1.00  0.00  0.65
 1982   9    95    85  -8.4 -20.0 15.43  5.43  0.01  0.00   0.0  0.01 0.001  0.01    85     9    58    18     3    14     0  0.00     0     0    12     0 72.06 0.523  69.0     0     0   269   374  0.54  0.76  70.7  99.9 15.00  0.00  0.00  0.00  0.00  0.00  0.00   2.0  1.00  1.00  0.00  0.65
 1982  10    96    86 -18.6 -20.0 15.43  5.43  0.00  0.00   0.0  0.00 0.000  0.00    69     9    58     2     0     2     0  0.00     0     0     1     0 76.20 0.523  43.3     0     0   269   374  0.54  0.76  70.6  99.9 15.00  0.00  0.00  0.00  0.00  0.00  0.00   2.0  1.00  1.00  0.00  0.65
 1982  11    97    87 -13.4 -20.0 15.43  5.43  0.00  0.00   0.0  0.00 0.000  0.00    69     9    59     1     0     1     0  0.00     0     0     0     0 76.20 0.523 -23.4     0     0   269 54199  0.54  0.76  70.6  99.9 15.00  0.00  0.00  0.00  0.00  0.00  0.00   2.0  1.00  1.00  0.00  0.64
 1982  12    98    88  -9.1 -20.0 15.43  5.43  0.00  0.00   0.0  0.00 0.000  0.00    69     9    59     1     0     1     0 -0.23     0     0     0     0 76.20 0.523   0.0     0     0   269   379  0.54  0.76  70.5  99.9 15.00  0.00  0.00  0.00  0.00  0.00  0.00   2.0  1.00  1.00  0.00  0.64
 1982  13    99    89 -14.5 -20.0 15.43  5.43  0.00  0.00   0.0  0.00 0.000  0.00    69     9    59     1     0     1     0 -0.23     0     0     0     0 76.20 0.523   0.0     0     0   269   379  0.54  0.76  70.5  99.9 15.00  0.00  0.00  0.00  0.00  0.00  0.00   2.0  1.00  1.00  0.00  0.64
 1982  14   100    90  -3.0 -20.0 15.43  5.43  0.00  0.00   0.0  0.00 0.000  0.00    69     9    59     1     0     1     0 -0.23     0     0     0     0 76.20 0.523   0.0     0     0   269   379  0.54  0.76  72.2  99.9 15.00  0.00  0.00  0.00  0.00  0.00  0.00   2.0  1.00  1.00  0.00  0.64
 1982  15   101    91  -1.4 -20.0 15.43  5.43  0.00  0.00   0.0  0.00 0.000  0.00    69     9    59     1     0     1     0 -0.23     0     0     0     0 76.20 0.523   0.0     0     0   269   379  0.54  0.76  71.6  99.9 15.00  0.00  0.00  0.00  0.00  0.00  0.00   2.0  1.00  1.00  0.00  0.64
 1982  16   102    92 -14.1 -20.0 15.43  5.43  0.00  0.00   0.0  0.00 0.000  0.00    69     9    59     1     0     1     0 -0.23     0     0     0     0 76.20 0.523   0.0     0     0   269   379  0.54  0.76  71.5  99.9 15.00  0.00  0.00  0.00  0.00  0.00  0.00   2.0  1.00  1.00  0.00  0.63
 1982  17   103    93  -8.7 -20.0 15.43  5.43  0.00  0.00   0.0  0.00 0.000  0.00    69     9    59     1     0     1     0 -0.23     0     0     0     0 76.20 0.523   0.0     0     0   269   379  0.54  0.76  71.2  99.9 15.00  0.00  0.00  0.00  0.00  0.00  0.00   2.0  1.00  1.00  0.00  0.63
 1982  18   104    94   0.3 -20.0 15.43  5.43  0.00  0.14   0.0  0.00 0.000  0.00    69     9    59     1     0     1     0 -0.23     0     0     0     0 76.20 0.524   0.2     0     0   270   376  0.54  0.76  70.3  99.9 15.00  0.00  0.00  0.00  0.00  0.00  0.00   2.0  0.94  0.97  0.00  0.63
 1982  19   105    95  -0.6 -20.0 15.43  5.43  0.00  0.00   0.0  0.00 0.000  0.00    69     9    59     1     0     1     0 -0.23     0     0     0     0 76.20 0.524   0.2     0     0   270   376  0.54  0.76  69.3  99.9 15.00  0.00  0.00  0.00  0.00  0.00  0.00   2.0  1.00  1.00  0.00  0.62
 1982  20   106    96  -3.3 -20.0 15.43  5.43  0.00  0.00   0.0  0.00 0.000  0.00    69     9    59     1     0     1     0 -0.23     0     0     0     0 76.20 0.524   0.2     0     0   270   376  0.54  0.76  69.3  99.9 15.00  0.00  0.00  0.00  0.00  0.00  0.00   2.0  1.00  1.00  0.00  0.62
 1982  21   107    97  -5.0 -20.0 15.43  5.43  0.00  0.00   0.0  0.00 0.000  0.00    69     9    59     1     0     1     0 -0.23     0     0     0     0 76.20 0.524   0.2     0     0   270   376  0.54  0.76  69.2  99.9 15.00  0.00  0.00  0.00  0.00  0.00  0.00   2.0  1.00  1.00  0.00  0.62
 1982  22   108    98  -2.2 -20.0 15.43  5.43  0.00  0.00   0.0  0.00 0.000  0.00    69     9    59     1     0     1     0 -0.23     0     0     0     0 76.20 0.524   0.2     0     0   270   376  0.54  0.76  70.8  99.9 15.00  0.00  0.00  0.00  0.00  0.00  0.00   2.0  1.00  1.00  0.00  0.62
 1982  23   109    99 -10.9 -20.0 15.43  5.43  0.00  0.00   0.0  0.00 0.000  0.00    69     9    59     1     0     1     0 -0.23     0     0     0     0 76.20 0.524   0.2     0     0   270   376  0.54  0.76  70.7  99.9 15.00  0.00  0.00  0.00  0.00  0.00  0.00   2.0  1.00  1.00  0.00  0.61
 1982  24   110   100  -7.5 -20.0 15.43  5.43  0.00  0.00   0.0  0.00 0.000  0.00    69     9    59     1     0     1     0 -0.23     0     0     0     0 76.20 0.524   0.2     0     0   270   376  0.54  0.76  70.4  99.9 15.00  0.00  0.00  0.00  0.00  0.00  0.00   2.0  1.00  1.00  0.00  0.61
 1982  25   111   101  -1.1 -20.0 15.43  5.43  0.00  0.00   0.0  0.00 0.000  0.00    69     9    59     1     0     1     0 -0.23     0     0     0     0 76.20 0.524   0.2     0     0   270   376  0.54  0.76  74.7  99.9 15.00  0.00  0.00  0.00  0.00  0.00  0.00   2.0  1.00  1.00  0.00  0.61
 1982  26   112   102   1.4 -20.0 15.44  5.44  0.00  0.65   0.0  0.00 0.000  0.00    69     9    59     1     0     1     0 -0.23     0     0     0     0 76.20 0.528   0.2     0     0   272   375  0.54  0.76  79.2  99.9 15.00  0.00  0.00  0.00  0.00  0.00  0.00   2.0  0.72  0.86  0.00  0.60
 1982  27   113   103   8.1 -20.0 15.53  5.53  0.00  2.32   0.1  0.00 0.000  0.00    69     9    59     1     0     1     0 -0.21     0     0     0     0 76.20 0.552   0.2     0     0   283   371  0.55  0.76  76.8  99.9 15.00  0.00  0.00  0.00  0.00  0.00  0.00   2.0  0.00  0.19  0.00  0.60
 1982  28   114   104   0.0 -20.0 15.53  5.53  0.00  0.00   0.0  0.00 0.000  0.00    69     9    59     1     0     1     0 -0.21     0     0     0     0 76.20 0.552   0.2     0     0   283   371  0.55  0.76  75.7  99.9 15.00  0.00  0.00  0.00  0.00  0.00  0.00   2.0  1.00  1.00  0.00  0.60
 1982  29   115   105   5.2 -20.0 15.58  5.58  0.00  2.32   0.0  0.00 0.000  0.00    69     9    59     1     0     1     0 -0.20     0     0     0     0 76.20 0.567   0.2     0     0   290   371  0.55  0.76  76.0  99.9 15.00  0.00  0.00  0.00  0.00  0.00  0.00   2.0  0.00  0.48  0.00  0.59
 1982  30   116   106   0.0 -20.0 15.58  5.58  0.00  0.00   0.0  0.00 0.000  0.00    69     9    59     1     0     1     0 -0.20     0     0     0     0 76.20 0.567   0.2     0     0   290   371  0.55  0.76  80.6  99.9 15.00  0.00  0.00  0.00  0.00  0.00  0.00   2.0  1.00  1.00  0.00  0.59
 1982  31   117   107  -7.2 -20.0 15.58  5.58  0.00  0.00   0.0  0.00 0.000  0.00    69     9    59     1     0     1     0 -0.20     0     0     0     0 76.20 0.567   0.2     0     0   290   371  0.55  0.76  78.9  99.9 15.00  0.00  0.00  0.00  0.00  0.00  0.00   2.0  1.00  1.00  0.00  0.59
 1982  32   118   108  -1.9 -20.0 15.58  5.58  0.00  0.00   0.0  0.00 0.000  0.00    69     9    59     1     0     1     0 -0.20     0     0     0     0 76.20 0.567   0.2     0     0   290   371  0.55  0.76  78.0  99.9 15.00  0.00  0.00  0.00  0.00  0.00  0.00   2.0  1.00  1.00  0.00  0.58
 1982  33   119   109  -3.9 -20.0 15.58  5.58  0.00  0.00   0.0  0.00 0.000  0.00    69     9    59     1     0     1     0 -0.20     0     0     0     0 76.20 0.567   0.2     0     0   290   371  0.55  0.76  77.9  99.9 15.00  0.00  0.00  0.00  0.00  0.00  0.00   2.0  1.00  1.00  0.00  0.58
 1982  34   120   110 -13.0 -20.0 15.58  5.58  0.00  0.00   0.0  0.00 0.000  0.00    69     9    59     1     0     1     0 -0.23     0     0     0     0 76.32 0.567   0.1     0     0   290   371  0.55  0.76  77.9  99.9 15.00  0.00  0.00  0.00  0.00  0.00  0.00   2.0  1.00  1.00  0.00  0.57
 1982  35   121   111 -17.0 -20.0 15.58  5.58  0.00  0.00   0.0  0.00 0.000  0.00    69     9    59     1     0     1     0 -0.23     0     0     0     0 76.32 0.567   0.1     0     0   290   371  0.55  0.76  77.9  99.9 15.00  0.00  0.00  0.00  0.00  0.00  0.00   2.0  1.00  1.00  0.00  0.57
 1982  36   122   112 -15.5 -20.0 15.58  5.58  0.00  0.00   0.0  0.00 0.000  0.00    69     9    59     1     0     1     0 -0.23     0     0     0     0 76.32 0.567   0.1     0     0   290   371  0.55  0.76  77.8  99.9 15.00  0.00  0.00  0.00  0.00  0.00  0.00   2.0  1.00  1.00  0.00  0.57
 1982  37   123   113 -13.8 -20.0 15.58  5.58  0.00  0.00   0.0  0.00 0.000  0.00    69     9    59     1     0     1     0 -0.23     0     0     0     0 76.32 0.567   0.1     0     0   290   371  0.55  0.76  77.7  99.9 15.00  0.00  0.00  0.00  0.00  0.00  0.00   2.0  1.00  1.00  0.00  0.56
 1982  38   124   114  -6.4 -20.0 15.58  5.58  0.00  0.00   0.0  0.00 0.000  0.00    69     9    59     1     0     1     0 -0.23     0     0     0     0 76.32 0.567   0.1     0     0   290   371  0.55  0.76  78.9  99.9 15.00  0.00  0.00  0.00  0.00  0.00  0.00   2.0  1.00  1.00  0.00  0.56
 1982  39   125   115  -8.1 -20.0 15.58  5.58  0.00  0.00   0.0  0.00 0.000  0.00    69     9    59     1     0     1     0 -0.23     0     0     0     0 76.32 0.567   0.1     0     0   290   371  0.55  0.76  78.4  99.9 15.00  0.00  0.00  0.00  0.00  0.00  0.00   2.0  1.00  1.00  0.00  0.56
 1982  40   126   116 -14.4 -20.0 15.58  5.58  0.00  0.00   0.0  0.00 0.000  0.00    69     9    59     1     0     1     0 -0.23     0     0     0     0 76.32 0.567   0.1     0     0   290   371  0.55  0.76  78.2  99.9 15.00  0.00  0.00  0.00  0.00  0.00  0.00   2.0  1.00  1.00  0.00  0.55
 1982  41   127   117 -11.6 -20.0 15.58  5.58  0.00  0.00   0.0  0.00 0.000  0.00    69     9    59     1     0     1     0 -0.23     0     0     0     0 76.32 0.567   0.1     0     0   290   371  0.55  0.76  78.0  99.9 15.00  0.00  0.00  0.00  0.00  0.00  0.00   2.0  1.00  1.00  0.00  0.55
 1982  42   128   118  -8.9 -20.0 15.58  5.58  0.00  0.00   0.0  0.00 0.000  0.00    69     9    59     1     0     1     0 -0.23     0     0     0     0 76.32 0.567   0.1     0     0   290   371  0.55  0.76  77.7  99.9 15.00  0.00  0.00  0.00  0.00  0.00  0.00   2.0  1.00  1.00  0.00  0.54
 1982  43   129   119  -2.2 -20.0 15.58  5.58  0.00  0.00   0.0  0.00 0.000  0.00    69     9    59     1     0     1     0 -0.23     0     0     0     0 76.32 0.567   0.1     0     0   290   371  0.55  0.76  87.2  99.9 15.00  0.00  0.00  0.00  0.00  0.00  0.00   2.0  1.00  1.00  0.00  0.54
 1982  44   130   120  -4.1 -20.0 15.58  5.58  0.00  0.00   0.0  0.00 0.000  0.00    69     9    59     1     0     1     0 -0.23     0     0     0     0 76.32 0.567   0.1     0     0   290   371  0.55  0.76  86.1  99.9 15.00  0.00  0.00  0.00  0.00  0.00  0.00   2.0  1.00  1.00  0.00  0.53
 1982  45   131   121   2.8 -20.0 15.61  5.61  0.00  1.30   0.1  0.00 0.000  0.00    69     9    59     1     0     1     0 -0.22     0     0     0     0 76.32 0.575   0.2     0     0   294   369  0.56  0.76  85.9  99.9 15.00  0.00  0.00  0.00  0.00  0.00  0.00   2.0  0.44  0.72  0.00  0.53
 1982  46   132   122   4.7 -20.0 15.66  5.66  0.00  2.18   0.0  0.00 0.000  0.00    69     9    59     1     0     1     0 -0.21     0     0     0     0 76.32 0.589   0.2     0     0   300   368  0.56  0.76  80.9  99.9 15.00  0.00  0.00  0.00  0.00  0.00  0.00   2.0  0.06  0.53  0.00  0.53
 1982  47   133   123   3.6 -20.0 15.70  5.70  0.00  1.67   0.0  0.00 0.000  0.00    69     9    59     1     0     1     0 -0.21     0     0     0     0 76.32 0.600   0.2     0     0   305   368  0.56  0.76  80.2  99.9 15.00  0.00  0.00  0.00  0.00  0.00  0.00   2.0  0.28  0.64  0.00  0.52
 1982  48   134   124   2.5 -20.0 15.73  5.73  0.00  1.16   0.0  0.00 0.000  0.00    69     9    59     1     0     1     0 -0.20     0     0     0     0 76.32 0.607   0.1     0     0   309   368  0.57  0.76  79.6  99.9 15.00  0.00  0.00  0.00  0.00  0.00  0.00   2.0  0.50  0.75  0.00  0.52
 1982  49   135   125   7.0 -20.0 15.80  5.80  0.00  2.32   0.1  0.00 0.000  0.00    69     9    59     1     0     1     0 -0.19     0     0     0     0 76.32 0.628   0.2     0     0   318   366  0.57  0.76  82.5  99.9 15.00  0.00  0.00  0.00  0.00  0.00  0.00   2.0  0.00  0.30  0.00  0.51
 1982  50   136   126   8.9 -20.0 21.04  5.89  0.00  2.32   0.2  0.00 0.000  0.00    70     9    59     1     1     1     0 -0.17     0     0     0     0 76.32 0.654   0.2     0     0   330   364  0.58  0.76  79.3  99.9 15.00  0.00  0.00  0.00  0.00  0.00  0.00   2.0  0.00  0.11  0.00  0.51
 1982  51   137   127  11.1 -20.0 21.13  6.01  0.00  2.32   0.3  0.00 0.000  0.00    70     9    59     2     1     1     0 -0.15     0     0     0     0 76.32 0.686   0.3     0     0   345   362  0.59  0.76  77.8  99.9 15.00  0.00  0.00  0.00  0.00  0.00  0.00   2.0  0.00  0.00  0.00  0.50
 1982  52   138   128  10.0 -20.0 21.22  6.12  0.00  2.32   0.4  0.00 0.001  0.00    70     9    59     2     1     1     0 -0.12     0     0     0     0 76.32 0.716   0.4     0     0   359   359  0.60  0.76  76.3  99.9 15.00  0.00  0.00  0.00  0.00  0.00  0.00   2.0  0.00  0.00  0.00  0.50
 1982  53   139   129  12.2 -20.0 21.32  6.25  0.00  2.32   0.5  0.00 0.001  0.00    70     9    59     2     1     1     0 -0.11     0     0     0     0 76.32 0.752   0.4     0     0   376   357  0.61  0.76  76.3  99.9 15.00  0.00  0.00  0.00  0.00  0.00  0.00   2.0  0.00  0.00  0.00  0.50
 1982  54   140   130   9.4 -20.0 21.40  6.35  0.00  2.32   0.1  0.00 0.001  0.00    70     9    59     2     1     2     0 -0.10     0     0     0     0 76.32 0.780   0.4     0     0   389   357  0.61  0.76  76.4  99.9 15.00  0.00  0.00  0.00  0.00  0.00  0.00   2.0  0.00  0.06  0.00  0.49
 1982  55   141   131   3.3 -20.0 21.43  6.38  0.00  1.55   0.4  0.00 0.001  0.01    71     9    59     3     1     2     0 -0.09     0     0     0     0 76.32 0.790   0.5     0     0   393   355  0.62  0.76  75.8  99.9 15.00  0.00  0.00  0.00  0.00  0.00  0.00   2.0  0.33  0.67  0.00  0.49
 1982  56   142   132  -1.4 -20.0 21.43  6.38  0.00  0.00   0.0  0.00 0.001  0.01    71     9    59     3     1     2     0 -0.09     0     0     0     0 76.32 0.790   0.5     0     0   393   355  0.62  0.76  75.1  99.9 15.00  0.00  0.00  0.00  0.00  0.00  0.00   2.0  1.00  1.00  0.00  0.48
 1982  57   143   133  -2.0 -20.0 21.43  6.38  0.00  0.00   0.0  0.00 0.001  0.01    71     9    59     3     1     2     0 -0.09     0     0     0     0 76.32 0.790   0.5     0     0   393   355  0.62  0.76  74.4  99.9 15.00  0.00  0.00  0.00  0.00  0.00  0.00   2.0  1.00  1.00  0.00  0.48
 1982  58   144   134   1.7 -20.0 21.44  6.40  0.00  0.76   0.2  0.01 0.001  0.01    71     9    59     3     1     2     0 -0.09     0     0     0     0 76.32 0.794   0.5     0     0   395   355  0.62  0.76  73.8  99.9 15.00  0.00  0.00  0.00  0.00  0.00  0.00   2.0  0.67  0.83  0.00  0.47
 1982  59   145   135   4.7 -20.0 21.48  6.45  0.01  2.18   0.6  0.01 0.001  0.01    72     9    59     3     2     2     0 -0.07     0     0     0     0 76.32 0.808   0.5     0     0   402   353  0.62  0.76  73.5  99.9 15.00  0.00  0.00  0.00  0.00  0.00  0.00   2.0  0.06  0.53  0.00  0.47
 1982  60   146   136   8.4 -20.0 21.55  6.54  0.01  2.32   1.0  0.01 0.001  0.01    72     9    59     4     2     2     0 -0.06     0     0     0     0 76.32 0.833   0.6     0     0   413   352  0.63  0.76  73.3  99.9 15.00  0.00  0.00  0.00  0.00  0.00  0.00   2.0  0.00  0.16  0.00  0.47
 1982  61   147   137   8.7 -20.0 21.62  6.63  0.01  2.32   0.3  0.01 0.001  0.01    73     9    59     4     2     2     0 -0.06     0     0     0     0 76.32 0.859   0.6     0     0   425   352  0.64  0.76  73.2  99.9 15.00  0.00  0.00  0.00  0.00  0.00  0.00   2.0  0.00  0.13  0.00  0.46
 1982  62   148   138  -0.2 -20.0 21.62  6.63  0.01  0.00   0.0  0.01 0.001  0.01    73     9    59     4     2     2     0 -0.06     0     0     0     0 76.32 0.859   0.6     0     0   425   352  0.64  0.77  73.2  99.9 15.00  0.00  0.00  0.00  0.00  0.00  0.00   2.0  1.00  1.00  0.00  0.46
 1982  63   149   139  -3.7 -20.0 21.62  6.63  0.01  0.00   0.0  0.01 0.001  0.01    73     9    59     4     2     2     0 -0.06     0     0     0     0 76.32 0.859   0.6     0     0   425   352  0.64  0.77  73.0  99.9 15.00  0.00  0.00  0.00  0.00  0.00  0.00   2.0  1.00  1.00  0.00  0.45
 1982  64   150   140  -4.2 -20.0 21.62  6.63  0.01  0.00   0.0  0.01 0.001  0.01    73     9    59     4     2     2     0 -0.06     0     0     0     0 76.32 0.859   0.6     0     0   425   352  0.64  0.77  72.8  99.9 15.00  0.00  0.00  0.00  0.00  0.00  0.00   2.0  1.00  1.00  0.00  0.45
 1982  65   151   141  -3.0 -20.0 21.62  6.63  0.01  0.00   0.0  0.01 0.001  0.01    73     9    59     4     2     2     0 -0.06     0     0     0     0 76.32 0.859   0.6     0     0   425   352  0.64  0.77  72.8  99.9 15.00  0.00  0.00  0.00  0.00  0.00  0.00   2.0  1.00  1.00  0.00  0.44
 1982  66   152   142  -3.0 -20.0 21.62  6.63  0.01  0.00   0.0  0.01 0.001  0.01    73     9    59     4     2     2     0 -0.06     0     0     0     0 76.32 0.859   0.6     0     0   425   352  0.64  0.77  72.3  99.9 15.00  0.00  0.00  0.00  0.00  0.00  0.00   2.0  1.00  1.00  0.00  0.44
 1982  67   153   143   2.5 -20.0 21.64  6.65  0.01  1.16   0.7  0.01 0.001  0.01    73     9    59     5     3     2     0 -0.05     0     0     0     0 76.32 0.866   0.7     0     0   428   351  0.64  0.77  72.0  99.9 15.00  0.00  0.00  0.00  0.00  0.00  0.00   2.0  0.50  0.75  0.00  0.43
 1982  68   154   144   1.4 -20.0 21.66  6.67  0.01  0.65   0.4  0.01 0.001  0.01    74     9    59     5     3     3     0 -0.05     0     0     0     0 76.32 0.870   2.5     0     0   430   347  0.64  0.77  71.6  99.9 15.00  0.00  0.00  0.00  0.00  0.00  0.00   2.0  0.72  0.86  0.00  0.43
 1982  69   155   145  11.1 -20.0 21.75  6.78  0.01  2.32   1.6  0.01 0.002  0.01    75     9    60     6     4     3     0 -0.04     0     0     0     0 76.32 0.903   2.1     0     0   445   346  0.65  0.77  71.8  99.9 15.00  0.00  0.00  0.00  0.00  0.00  0.00   2.0  0.00  0.00  0.00  0.42
 1982  70   156   146  10.0 -20.0 21.83  6.89  0.01  2.32   1.7  0.02 0.002  0.02    77     9    60     8     5     3     0 -0.03     0     0     0     0 76.32 0.933   1.8     0     0   459   346  0.66  0.77  72.2  99.9 15.00  0.00  0.00  0.00  0.00  0.00  0.00   2.0  0.00  0.00  0.00  0.42
 1982  71   157   147  12.8 -20.0 21.94  7.02  0.02  2.32   1.2  0.02 0.002  0.02    78     9    60     9     5     4     0 -0.03     0     0     0     0 76.32 0.971   1.6     0     0   477   345  0.67  0.77  72.6  99.9 15.00  0.00  0.00  0.00  0.00  0.00  0.00   2.0  0.00  0.00  0.00  0.42
 1982  72   158   148   8.0 -20.0 22.01  7.11  0.02  2.32   3.0  0.02 0.003  0.03    80     9    60    11     7     4     0 -0.02     0     0     0     0 76.32     1   1.5     0     0   488   343  0.67  0.77  72.8  99.9 15.00  0.00  0.00  0.00  0.00  0.00  0.00   2.0  0.00  0.20  0.00  0.41
 1982  73   159   149   7.8 -20.0 22.07  7.19  0.02  2.32   0.3  0.02 0.003  0.03    81     9    60    11     7     5     0 -0.02     0     0     0     0 76.32 1.019   1.3     0     0   498   344  0.68  0.77  73.1  99.9 15.00  0.00  0.00  0.00  0.00  0.00  0.00   2.0  0.00  0.22  0.00  0.41
 1982  74   160   150  10.0 -20.0 22.16  7.30  0.02  2.32   1.3  0.03 0.003  0.03    82     9    60    12     8     5     0 -0.02     0     0     0     0 76.32 1.049   1.3     0     0   512   343  0.69  0.77  93.7  99.9 15.00  0.00  0.00  0.00  0.00  0.00  0.00   2.0  0.00  0.00  0.00  0.40
 1982  75   161   151  13.0 -20.0 22.27  7.43  0.03  2.32   4.9  0.03 0.004  0.04    86     9    61    16    10     6     0 -0.02     0     0     0     0 76.32 1.088   1.3     0     0   530   342  0.70  0.77  96.9  99.9 15.00  0.00  0.00  0.00  0.00  0.00  0.00   2.0  0.00  0.00  0.00  0.40
 1982  76   162   152  13.9 -20.0 22.39  7.58  0.04  2.32   5.9  0.04 0.005  0.05    92     9    62    21    13     8     0 -0.01     0     0     0     0 76.32 1.131   1.3     0     0   549   341  0.71  0.77  89.3  99.9 15.00  0.00  0.00  0.00  0.00  0.00  0.00   2.0  0.00  0.00  0.00  0.39
 1982  77   163   153   9.8 -20.0 22.51  7.68  0.04  2.32   0.9  0.05 0.005  0.05    92     9    62    21    13     8     0 -0.01     0     0     0     0 76.32 1.161   1.2     0     0   569   341  0.72  0.77  88.8  99.9 15.00  0.00  0.00  0.00  0.00  0.00  0.00   2.0  0.00  0.02  0.00  0.39
 1982  78   164   154  16.1 -20.0 22.71  7.85  0.05  2.32   7.3  0.06 0.006  0.06    99     9    63    27    17    10     0 -0.01     0     0     0     0 76.32 1.211   1.3     0     0   601   340  0.73  0.77  98.9  99.9 15.00  0.00  0.00  0.00  0.00  0.00  0.00   2.0  0.00  0.00  0.00  0.39
 1982  79   165   155   8.3 -20.0 22.82  7.94  0.06  2.32  11.7  0.08 0.008  0.09   110     9    64    36    23    13     0 -0.01     0     0     1     0 76.32 1.237   1.4     0     0   618   338  0.74  0.77  90.9  99.9 11.92  0.00  0.00  0.00  0.00  0.00  0.00   2.0  0.00  0.17  0.00  0.38
 1982  80   166   156   2.5 -20.0 22.85  7.97  0.06  1.16   7.3  0.08 0.008  0.09   116     9    65    42    24    18     0 -0.01     0     0     5     0 76.32 1.245  12.7     0     0   624   334  0.74  0.77  87.7  99.9 11.54  0.00  0.00  0.00  0.00  0.00  0.00   2.0  0.50  0.75  0.00  0.38
 1982  81   167   157   3.9 -20.0 22.90  8.01  0.07  1.81  12.9  0.08 0.009  0.09   128     9    67    52    25    27     0 -0.00     0     0    13     0 76.32 1.257  25.1     0     0   632   334  0.74  0.77  84.8  99.9  9.92  0.00  0.00  0.00  0.00  0.00  0.00   2.0  0.22  0.61  0.00  0.37
 1982  82   168   158   7.8 -20.0 23.00  8.09  0.08  2.32   9.1  0.10 0.011  0.11   136     9    68    59    31    28     0 -0.00     0     0    12     0 76.32 1.284  20.2     0     0   647   332  0.75  0.78  84.2  99.9 15.00  0.00  0.00  0.00  0.00  0.00  0.00   2.0  0.00  0.22  0.00  0.37
 1982  83   169   159   6.6 -20.0 23.08  8.16  0.09  2.32  16.4  0.12 0.013  0.13   151     9    70    71    35    36     0 -0.00     0     0    17     0 76.32 1.306  23.8     0     0   661   330  0.75  0.78  83.6  99.9  9.85  0.00  0.00  0.00  0.00  0.00  0.00   2.0  0.00  0.34  0.00  0.36
 1982  84   170   160   3.9 -20.0 23.13  8.20  0.10  1.78  18.2  0.12 0.013  0.14   168     9    73    85    37    48     0 -0.00     0     0    28     0 76.32 1.320  32.8     0     0   669   330  0.76  0.78  86.9  99.9  7.78  0.00  0.00  0.00  0.00  0.00  0.00   2.0  0.23  0.62  0.00  0.36
 1982  85   171   161   3.0 -20.0 23.17  8.23  0.10  1.41  15.2  0.13 0.014  0.14   181     9    75    97    39    59     0 -0.00     0     0    38     0 76.32 1.331  39.0     0     0   675   329  0.76  0.78  85.8  99.9  7.45  0.00  0.00  0.00  0.00  0.00  0.00   2.0  0.39  0.69  0.00  0.35
 1982  86   172   162   5.6 -20.0 23.24  8.29  0.11  2.32  20.9  0.14 0.015  0.16   200     9    78   113    43    71     0 -0.00     0     0    48     0 76.32 1.352  42.2     0     0   687   329  0.77  0.78  84.9  99.9  8.71  0.00  0.00  0.00  0.00  0.00  0.00   2.0  0.00  0.44  0.00  0.35
 1982  87   173   163   6.9 -20.0 23.33  8.36  0.13  2.32  16.4  0.16 0.018  0.18   215     9    80   126    49    77     0 -0.00     0     0    51     0 76.32 1.379  40.3     0     0   701   328  0.77  0.78  84.1  99.9 11.14  0.00  0.00  0.00  0.00  0.00  0.00   2.0  0.00  0.31  0.00  0.35
 1982  88   174   164  10.3 -20.0 23.46  8.47  0.15  2.32  12.1  0.19 0.021  0.21   226     9    81   136    59    77     0 -0.00     0     0    46     0 76.32 1.420  33.9     0     0   722   327  0.78  0.78  83.7  99.9 14.27  0.00  0.00  0.00  0.00  0.00  0.00   1.4  0.00  0.00  0.00  0.34
 1982  89   175   165  15.0 -20.0 23.65  8.63  0.19  2.32  33.6  0.25 0.028  0.28   257     9    86   162    78    84     0 -0.00     0     0    43     0 76.32 1.481  26.3     0     0   753   325  0.79  0.78  84.6  99.9  4.73  0.00  0.00  0.00  0.00  0.00  0.00   0.6  0.00  0.00  0.00  0.34
 1982  90   176   166  10.9 -20.0 23.77  8.74  0.22  2.08  47.0  0.30 0.032  0.33   299     9    92   198    91   107     0 -0.00     0     0    59     0 76.32 1.528  29.6     0     0   772   324  0.80  0.77  83.6  99.9  3.44  0.00  0.00  0.00  0.10  0.10  0.10   0.9  0.00  0.00  0.00  0.33
 1982  91   177   167  13.9 -20.0 23.93  8.89  0.26  2.09  50.5  0.35 0.038  0.39   345     9    99   237   108   129     0 -0.00     0     0    72     0 76.32 1.592  30.3     0     0   798   323  0.81  0.77  82.7  97.1  3.18  0.00  0.00  0.00  0.10  0.10  0.10   0.7  0.00  0.00  0.00  0.33
 1982  92   178   168  17.0 -20.0 24.11  9.07  0.29  2.01  44.3  0.41 0.045  0.46   385     9   105   271   127   144     0 -0.00     0     0    76     0 76.32 1.676  28.0     0     0   828   323  0.83  0.77  82.1  99.9  3.55  0.00  0.00  0.00  0.13  0.13  0.13   0.6  0.00  0.00  0.00  0.33
 1982  93   179   169   7.5 -20.0 24.19  9.15  0.31  1.90  65.1  0.43 0.048  0.48   444     9   114   320   134   186     0 -0.00     0     0   115     0 76.71 1.715  35.7     0     0   841   321  0.83  0.77  80.9  80.6  3.07  0.00  0.00  0.00  0.18  0.18  0.18   1.2  0.00  0.25  0.00  0.32
 1982  94   180   170   5.2 -20.0 24.25  9.20  0.31  1.95  53.3  0.44 0.049  0.49   492     9   122   361   138   224     0 -0.00     0     0   150     0 76.85 1.745  41.5     0     0   850   321  0.84  0.77  79.8  99.9  3.91  0.00  0.00  0.00  0.16  0.16  0.16   2.0  0.00  0.48  0.00  0.32
 1982  95   181   171   3.6 -20.0 24.28  9.24  0.32  1.43  19.9  0.45 0.050  0.50   510     9   124   377   140   237     0 -0.00     0     0   162     0 76.85 1.767  43.1     0     0   856   321  0.84  0.77  85.5  99.9  8.33  0.00  0.00  0.00  0.14  0.14  0.14   2.0  0.28  0.64  0.00  0.31
 1982  96   182   172  -0.8 -20.0 24.28  9.24  0.32  0.00   0.0  0.45 0.050  0.50   510     9   124   377   140   237     0 -0.00     0     0   162     0 76.85 1.767  43.1     0     0   856   320  0.84  0.77  83.9  99.9  6.02  0.00  0.00  0.00  0.13  0.13  0.13   2.0  1.00  1.00  0.00  0.31
 1982  97   183   173   3.0 -20.0 24.32  9.27  0.32  1.23   9.2  0.45 0.050  0.50   519     9   126   384   141   243     0 -0.00     0     0   168     0 76.85 1.786  43.6     0     0   862   320  0.84  0.77  83.3  99.9 15.00  0.00  0.00  0.00  0.13  0.13  0.13   2.0  0.39  0.69  0.00  0.31
 1982  98   184   174   4.4 -20.0 24.37  9.32  0.32  1.80  32.1  0.46 0.051  0.51   548     9   130   408   144   265     0 -0.00     0     0   188     0 76.85 1.814  46.0     0     0   870   320  0.85  0.77  83.0  99.9  7.67  0.00  0.00  0.00  0.12  0.12  0.12   2.0  0.12  0.56  0.00  0.30
 1982  99   185   175   4.1 -20.0 24.41  9.36  0.33  1.71  68.0  0.47 0.052  0.52   609     9   139   461   146   315     0 -0.00     0     0   237     0 76.85 1.841  51.3     0     0   877   320  0.85  0.77  81.2  74.4  3.50  0.00  0.00  0.00  0.11  0.11  0.11   2.0  0.17  0.59  0.00  0.30
 1982 100   186   176   8.7 -20.0 24.51  9.45  0.35  2.08  81.4  0.50 0.056  0.56   684     9   150   524   157   367     0 -0.00     0     0   283     0 76.85 1.901  54.0     0     0   893   319  0.86  0.78  79.7  66.9  3.44  0.00  0.00  0.00  0.10  0.10  0.10   1.1  0.00  0.13  0.00  0.29
 1982 101   187   177  13.6 -20.0 24.67  9.60  0.38  2.12  83.0  0.56 0.063  0.63   759     9   161   589   177   412     0 -0.00     0     0   316     0 76.85 2.003  53.7     0     0   918   318  0.87  0.78  78.3  57.7  3.26  0.00  0.00  0.00  0.09  0.09  0.09   0.6  0.00  0.00  0.00  0.29
 1982 102   188   178  20.2 -20.0 24.89  9.81  0.42  2.04  92.9  0.65 0.074  0.72   844     9   173   661   205   456     0 -0.00     0     0   344     0 76.85 2.166  52.0     0     0   955   316  0.88  0.78  76.8  42.5  2.62  0.00  0.00  0.00  0.12  0.12  0.12   0.4  0.00  0.02  0.00  0.29
 1982 103   189   179  16.1 -20.0 25.06  9.98  0.45  1.87  95.0  0.71 0.081  0.79   930     9   186   734   226   508     0 -0.00     0     0   384     0 76.85 2.306  52.3     0     0   982   315  0.90  0.77  75.2  41.1  2.51  0.00  0.00  0.00  0.19  0.19  0.19   0.5  0.00  0.00  0.00  0.28
 1982 104   190   180  21.1 -20.0 25.27 10.20  0.49  1.80  97.6  0.80 0.092  0.89  1018     9   200   809   254   556     0 -0.00     0     0   416     0 76.85 2.503  51.4     0     0  1015   314  0.91  0.77  73.6  33.8  2.08  0.00  0.00  0.00  0.22  0.22  0.22   0.4  0.00  0.08  0.00  0.28
 1982 105   191   181  24.2 -20.0 25.49 10.46  0.52  1.69  70.8  0.86 0.100  0.96  1081     9   209   862   276   586     0 -0.00     0     0   434     0 77.72 2.744  50.3     0     0  1051   312  0.93  0.77  72.5  41.1  2.69  0.00  0.00  0.00  0.27  0.27  0.27   0.4  0.00  0.28  0.00  0.27
 1982 106   192   182  18.4 -20.0 25.65 10.65  0.55  1.63  33.9  0.93 0.108  1.04  1111     9   214   888   300   588     0 -0.00     0     0   425     0 78.38 2.936  47.8     0     0  1078   310  0.95  0.77  72.1  91.5  6.25  0.00  0.00  0.00  0.30  0.30  0.30   0.4  0.00  0.00  0.00  0.27
 1982 107   193   183  10.0 -20.0 25.74 10.76  0.56  1.59 112.4  0.97 0.112  1.08  1212     9   230   973   313   661     0 -0.00     0     0   491     0 78.74 3.043  50.4     0     0  1092   309  0.96  0.77  70.0  31.6  2.02  0.00  0.00  0.00  0.31  0.31  0.31   0.5  0.00  0.00  0.00  0.27
 1982 108   194   184  12.2 -20.0 25.85 10.88  0.58  1.59 108.2  1.01 0.118  1.13  1310     9   245  1056   328   728     0 -0.00     0     0   549     0 79.18 3.183  52.0     0     0  1109   308  0.97  0.77  68.0  29.7  1.74  0.00  0.00  0.00  0.31  0.31  0.31   0.5  0.00  0.00  0.00  0.26
 1982 109   195   185  15.3 -20.0 25.98 11.04  0.60  1.57 107.0  1.07 0.125  1.19  1406     9   259  1137   347   791     0 -0.00     0     0   600     0 79.74 3.370  52.8     0     0  1130   307  0.98  0.77  68.6  28.8  1.65  0.00  0.00  0.00  0.32  0.32  0.32   0.4  0.00  0.00  0.00  0.26
 1982 110   196   186   6.7 -20.0 25.98 11.11  0.60  1.54 112.3  1.08 0.127  1.21  1507     9   275  1223   352   871     0 -0.00     0     0   678     0 80.30 3.457  55.4     0     0  1130   306  0.99  0.77  66.3  31.5  2.56  0.00  0.00  0.00  0.34  0.34  0.34   0.8  0.00  0.33  0.00  0.00
 1982 111   197   187   7.0 -20.0 25.98 11.19  0.61  1.59 107.1  1.09 0.129  1.22  1604     9   290  1305   358   947     0 -0.00     0     0   750     0 80.89 3.552  57.5     0     0  1130   306  0.99  0.77  64.2  32.3  2.21  0.00  0.00  0.00  0.32  0.32  0.32   0.7  0.00  0.30  0.00  0.00
 1982 112   198   188   8.6 -20.0 25.98 11.28  0.61  1.62 129.7  1.12 0.133  1.25  1721     9   307  1404   367  1037     0 -0.00     0     0   835     0 81.62 3.677  59.4     0     0  1130   305  1.00  0.77  61.7  25.2  1.81  0.00  0.00  0.00  0.30  0.30  0.30   0.5  0.00  0.14  0.00  0.00
 1982 113   199   189  11.7 -20.0 25.98 11.40  0.63  1.64 114.0  1.16 0.139  1.30  1823     9   322  1492   382  1110     0 -0.00     0     0   897     0 82.61 3.857  60.1     0     0  1130   304  1.01  0.77  59.6  25.8  1.99  0.00  0.00  0.00  0.29  0.29  0.29   0.4  0.00  0.00  0.00  0.00
 1982 114   200   190  16.4 -20.0 25.98 11.57  0.65  1.62 100.7  1.22 0.147  1.37  1913     9   336  1569   403  1166     0 -0.00     0     0   939     0 84.01 4.121  59.9     0     0  1130   302  1.02  0.78  57.8  25.7  2.11  0.00  0.00  0.00  0.30  0.30  0.30   0.3  0.00  0.00  0.00  0.00
 1982 115   201   191  13.1 -20.0 25.98 11.71  0.66  1.59  62.5  1.26 0.153  1.42  1969     9   344  1616   420  1196     0 -0.00     0     0   958     0 85.12 4.340  59.3     0     0  1130   301  1.03  0.78  57.2  43.6  3.57  0.00  0.00  0.00  0.31  0.31  0.31   0.4  0.00  0.00  0.00  0.00
 1982 116   202   192  14.1 -20.0 30.44 11.86  0.67  1.58 133.9  1.31 0.161  1.47  2090     9   361  1719   438  1282     0 -0.00     0     0  1031     0 86.33 4.583  59.9     0     0  1109   299  1.04  0.78  54.6  18.6  1.29  0.00  0.00  0.01  0.32  0.32  0.32   0.3  0.00  0.00  0.00  0.00
 1982 117   203   193  10.6 -20.0 30.94 11.97  0.68  1.56  39.8  1.34 0.166  1.51  2125     9   366  1749   451  1298     0 -0.00     0     0  1038     0 87.24 4.775  59.3     0     0  1094   297  1.05  0.78  54.2  67.1  3.73  0.00  0.00  0.00  0.33  0.33  0.33   0.4  0.00  0.00  0.00  0.00
 1982 118   204   194   8.4 -20.0 31.33 12.06  0.69  1.57   8.0  1.36 0.169  1.53  2131     9   367  1755   460  1295     0 -0.00     0     0  1031     0 87.96 4.928  58.8     0     0  1083   295  1.06  0.78  57.9  99.9 15.00  0.00  0.00  0.00  0.32  0.32  0.32   0.5  0.00  0.16  0.00  0.00
 1982 119   205   195  10.0 -20.0 31.79 12.17  0.69  1.59  37.0  1.39 0.174  1.57  2164     9   372  1783   473  1310     0 -0.00     0     0  1037     0 88.83 5.111  58.1     0     0  1069   294  1.07  0.79  73.2  99.9  7.45  0.00  0.00  0.00  0.31  0.31  0.31   0.7  0.00  0.00  0.00  0.00
 1982 120   206   196  13.9 -20.0 32.44 12.31  0.70  1.63  59.3  1.44 0.182  1.62  2217     9   379  1829   492  1337     0 -0.00     0     0  1049     0 90.04 5.370  57.3     0     0  1050   292  1.08  0.79  72.2  57.1  6.75  0.00  0.00  0.00  0.30  0.30  0.30   1.5  0.00  0.00  0.00  0.00
 1982 121   207   197  16.1 -20.0 33.20 12.48  0.72  1.72  82.8  1.49 0.193  1.68  2291     9   389  1893   515  1378     0 -0.00     0     0  1069     0 91.45 5.676  56.5     0     0  1029   289  1.09  0.80  70.1  39.6  4.88  0.00  0.00  0.00  0.26  0.26  0.26   1.0  0.00  0.00  0.00  0.00
 1982 122   208   198  18.0 -20.0 34.04 12.67  0.73  1.81 112.8  1.56 0.206  1.76  2393     9   402  1982   543  1439     0 -0.00     0     0  1104     0 93.03 6.026  55.7     0     0  1006   287  1.11  0.80  67.7  28.3  3.70  0.00  0.00  0.00  0.22  0.22  0.22   0.7  0.00  0.00  0.00  0.00
 1982 123   209   199  22.0 -20.0 35.07 12.90  0.75  1.85 133.5  1.62 0.220  1.85  2514     9   417  2088   573  1516     0 -0.00     0     0  1149     0 94.97 6.468  55.0     0     0   980   284  1.13  0.81  64.9  21.7  3.03  0.00  0.00  0.00  0.20  0.20  0.20   0.5  0.00  0.13  0.00  0.00
 1982 124   210   200  24.5 -20.0 36.21 13.16  0.76  1.85 158.7  1.68 0.234  1.92  2658     9   434  2215   600  1615     0 -0.00     0     0  1219     0 97.15 6.977  55.0     0     0   951   281  1.15  0.81  61.7  16.6  2.52  0.00  0.00  0.00  0.20  0.20  0.20   0.4  0.00  0.30  0.00  0.00
 1982 125   211   201  18.0 -20.0 37.06 13.35  0.77  1.86  37.4  1.74 0.244  1.99  2691     9   438  2244   628  1616     0 -0.00     0     0  1205     0 98.77 7.369  53.7     0     0   931   278  1.16  0.82  61.4  79.2  9.30  0.00  0.00  0.00  0.20  0.20  0.20   0.4  0.00  0.00  0.00  0.00
 1982 126   212   202  10.9 -20.0 37.57 13.46  0.78  1.86 101.9  1.78 0.253  2.03  2784     9   449  2326   645  1681     0 -0.00     0     0  1250     0 99.75 7.607  53.7     0     0   920   276  1.17  0.82  91.8  52.0  4.03  0.00  0.00  0.00  0.20  0.20  0.20   0.5  0.00  0.00  0.00  0.00
 1982 127   213   203  14.4 -20.0 38.24 13.62  0.79  1.87 192.9  1.83 0.265  2.09  2962     9   469  2483   667  1817     0 -0.00     0     0  1356     0 101.1 7.931  54.6     0     0   905   274  1.18  0.82  90.6  24.2  3.52  0.00  0.00  0.00  0.19  0.19  0.19   0.8  0.00  0.00  0.00  0.00
 1982 128   214   204  20.5 -20.0 39.20 13.83  0.80  1.92 204.7  1.90 0.283  2.18  3150     9   490  2651   697  1953     0 -0.00     0     0  1448     0 102.9 8.413  54.6     0     0   884   272  1.20  0.83  86.1  19.7  3.16  0.00  0.00  0.00  0.17  0.17  0.17   0.6  0.00  0.04  0.00  0.00
 1982 129   215   205  22.5 -20.0 40.29 14.07  0.81  1.95 190.8  1.96 0.301  2.26  3325     9   509  2807   728  2080     0 -0.00     0     0  1528     0 105.0 8.964  54.4     0     0   863   270  1.22  0.83  82.2  20.0  3.50  0.00  0.00  0.00  0.16  0.16  0.16   0.6  0.00  0.17  0.00  0.00
 1982 130   216   206  22.5 -20.0 41.47 14.07  0.81  1.99 144.7  1.93 0.320  2.25  3460     9   522  2928   722  2201     0 -0.00     0     0  1570     6 105.0 9.537  53.7     0     0   843   267  1.23  0.84  79.4  26.1  4.92  0.00  0.00  0.00  0.14  0.14  0.14   0.8  0.00  0.17  0.00  0.00
 1982 131   217   207  22.0 -20.0 42.63 14.07  0.80  2.07 185.4  1.90 0.345  2.24  3633     9   539  3085   716  2358     0 -0.00     0     0  1623    11 105.0 10.11  52.8     0     0   825   265  1.25  0.85  77.0  20.6  4.11  0.00  0.00  0.00  0.11  0.11  0.11   1.0  0.00  0.13  0.00  0.00
 1982 132   218   208  18.9 -20.0 43.62 14.07  0.80  2.15  88.0  1.87 0.356  2.23  3716     9   546  3160   711  2434     0 -0.00     0     0  1651    16 105.0 10.62  52.5     0     0   810   263  1.27  0.86 102.9  65.1  9.98  0.00  0.00  0.00  0.07  0.07  0.07   2.0  0.00  0.00  0.00  0.00
 1982 133   219   209  20.0 -20.0 44.68 14.07  0.79  2.23  95.7  1.84 0.368  2.21  3806     9   553  3243   705  2517     0 -0.00     0     0  1680    21 105.0 11.17  52.2     0     0   795   261  1.28  0.86 101.8  59.4  9.33  0.00  0.00  0.00  0.04  0.04  0.04   2.0  0.00  0.00  0.00  0.00
 1982 134   220   210  17.8 -20.0 45.61 14.07  0.79  2.30 105.7  1.82 0.382  2.20  3905     9   561  3335   701  2609     0 -0.00     0     0  1713    26 105.0 11.66  51.7     0     0   781   260  1.30  0.87 101.1  57.7  9.24  0.00  0.00  0.00  0.01  0.01  0.01   2.0  0.00  0.00  0.00  0.00
 1982 135   221   211  17.8 -20.0 46.54 14.07  0.78  2.32 242.6  1.79 0.417  2.21  4136     9   578  3548   696  2823     0 -0.00     0     0  1781    31 105.0 12.15  50.6     0     0   769   258  1.31  0.88 108.3  26.9  4.07  0.00  0.00  0.00  0.00  0.00  0.00   2.0  0.00  0.00  0.00  0.00
 1982 136   222   212  19.5 -20.0 47.57 14.07  0.78  2.32 103.4  1.77 0.431  2.20  4234     9   585  3640   690  2915     0 -0.00     0     0  1814    36 105.0 12.72  50.3     0     0   756   256  1.33  0.88 108.7  61.8  9.47  0.00  0.00  0.00  0.00  0.00  0.00   2.0  0.00  0.00  0.00  0.00
 1982 137   223   213  19.5 -20.0 48.59 14.07  0.77  2.32 148.7  1.74 0.451  2.19  4375     9   594  3772   684  3047     0 -0.00     0     0  1858    41 105.0 13.28  49.8     0     0   743   255  1.35  0.89 110.9  43.7  6.58  0.00  0.00  0.00  0.00  0.00  0.00   2.0  0.00  0.00  0.00  0.00
 1982 138   224   214  20.3 -20.0 49.66 14.07  0.77  2.32 224.8  1.72 0.484  2.20  4590     9   608  3973   678  3158     0 -0.00    91    91  1924    46 105.0 13.89  49.0     0     0   730   253  1.36  0.89 108.1  27.4  4.38  0.00  0.00  0.00  0.00  0.00  0.00   2.0  0.00  0.02  0.00  0.00
 1982 139   225   215  23.6 -20.0 53.43 14.07  0.76  2.32 209.0  1.68 0.514  2.20  4790     9   620  4160   670  3127     0 -0.00   311   177  1986    52 105.0 14.61  48.4     0     0   717   251  1.38  0.90 104.2  26.8  4.54  0.00  0.00  0.00  0.00  0.00  0.00   2.0  0.00  0.24  0.00  0.00
 1982 140   226   216  21.1 -20.0 57.65 14.07  0.76  2.32 124.4  1.66 0.530  2.19  4909     9   626  4274   666  3075     0 -0.00   477   228  2025    57 105.0 15.26  48.0     0     0   705   250  1.40  0.92 102.1  46.7  8.17  0.00  0.00  0.00  0.00  0.00  0.00   2.0  0.00  0.07  0.00  0.00
 1982 141   227   217  18.0 -20.0 63.14 14.07  0.75  2.32 183.3  1.64 0.556  2.20  5087     9   632  4445   662  3113     0 -0.00   610   306  2080    61 105.0 15.82  47.4     0     0   696   248  1.41  0.93 122.7  40.6  5.90  0.00  0.00  0.00  0.00  0.00  0.00   2.0  0.00  0.00  0.00  0.00
 1982 142   228   218  16.1 -20.0 70.19 14.07  0.75  2.32 147.4  1.62 0.578  2.20  5231     9   636  4586   658  3103     0 -0.00   760   370  2126    64 105.0 16.33  47.0     0     0   687   247  1.43  0.95 120.5  51.5  7.82  0.00  0.00  0.00  0.00  0.00  0.00   2.0  0.00  0.00  0.00  0.00
 1982 143   229   219  18.0 -20.0 71.58 14.07  0.74  2.32 200.5  1.61 0.608  2.21  5428     9   640  4779   654  3151     2  0.00   904   460  2186    68 105.0 16.91  46.4 11304 .0000   679   245  1.44  0.97 116.5  34.9  5.52  0.00  0.00  0.00  0.00  0.00  0.00   2.0  0.00  0.00  0.00  0.00
 1982 144   230   220  18.7 -20.0 73.01 14.07  0.74  2.32  79.4  1.59 0.605  2.19  5506     9   640  4857   649  3089    19  0.00  1027   478  2250    72 105.0 17.51  47.2 11304 .0002   671   244  1.46  0.98 115.4  87.7 14.04  0.00  0.00  0.00  0.00  0.00  0.00   2.0  0.00  0.00  0.00  0.00
 1982 145   231   221  20.0 -20.0 74.55 14.07  0.74  2.32 117.5  1.56 0.601  2.17  5622     9   641  4972   644  3146    56  0.01  1050   514  2334    76 105.0 18.15  48.2 11304 .0005   662   243  1.47  0.98 130.6  65.3  9.23  0.00  0.00  0.00  0.00  0.00  0.00   2.0  0.00  0.00  0.00  0.00
 1982 146   232   222  16.4 -20.0 75.81 14.07  0.73  2.32 215.7  1.55 0.598  2.15  5836     9   643  5183   641  3267   100  0.02  1095   559  2504    80 105.0 18.67  50.0 11304 .0009   655   242  1.49  0.98 148.9  43.3  5.37  0.00  0.00  0.00  0.00  0.00  0.00   2.0  0.00  0.00  0.00  0.00
 1982 147   233   223  18.4 -20.0 77.22 14.07  0.73  2.32 238.3  1.53 0.595  2.12  6071     9   645  5417   636  3391   164  0.03  1142   623  2677    84 105.0 19.26  51.8 11304 .0015   648   240  1.50  0.98 146.3  36.4  4.70  0.00  0.00  0.00  0.00  0.00  0.00   2.0  0.00  0.00  0.00  0.00
 1982 148   234   224  23.3 -20.0 79.02 14.07  0.72  2.32 130.7  1.50 0.591  2.10  6200     9   646  5545   630  3410   266  0.05  1150   724  2709    89 105.0 20.01  52.2 11304 .0023   639   239  1.52  0.98 136.0  56.6  7.90  0.00  0.00  0.00  0.00  0.00  0.00   2.0  0.00  0.22  0.00  0.00
 1982 149   235   225  21.4 -20.0 80.17 14.07  0.72  2.32 191.6  1.48 0.587  2.07  6390     9   648  5733   624  3463   381  0.07  1171   840  2786    94 105.0 20.71  53.0 11304 .0034   632   238  1.54  0.98 155.0  45.8  5.62  0.00  0.00  0.00  0.00  0.00  0.00   2.0  0.00  0.09  0.00  0.00
 1982 150   236   226  20.5 -20.0 80.58 14.07  0.71  2.32 146.2  1.47 0.584  2.06  6534     9   649  5876   624  3474   507  0.09  1175   966  2805    96 105.0 21.37  53.2 11304 .0045   625   236  1.56  0.98 148.2  58.2  7.48  0.00  0.00  0.00  0.00  0.00  0.00   1.3  0.00  0.04  0.00  0.00
 1982 151   237   227  17.8 -20.0 80.94 14.07  0.71  2.32 118.4  1.47 0.581  2.05  6651     9   650  5992   624  3479   616  0.10  1177  1074  2814    97 105.0 21.95  53.3 11304 .0054   619   235  1.57  0.98 153.6  79.3  9.85  0.00  0.00  0.00  0.00  0.00  0.00   1.1  0.00  0.00  0.00  0.00
 1982 152   238   228  12.8 -20.0 81.19 14.07  0.71  2.32 234.5  1.46 0.579  2.04  6883     9   652  6222   624  3600   679  0.11  1222  1137  2982    98 105.0 22.36  54.8 11304 .0060   615   234  1.58  0.98 139.0  39.7  5.46  0.00  0.00  0.00  0.00  0.00  0.00   1.8  0.00  0.00  0.00  0.00
 1982 153   239   229  15.2 -20.0 81.50 14.07  0.70  2.32  89.0  1.43 0.577  2.01  6971     9   653  6309   613  3600   768  0.12  1223  1226  2987   105 105.0 22.86  54.9 11304 .0068   611   233  1.59  0.98 137.5  99.9 14.01  0.00  0.00  0.00  0.00  0.00  0.00   0.8  0.00  0.00  0.00  0.00
 1982 154   240   230  15.0 -20.0 81.80 14.07  0.70  2.32  61.2  1.40 0.574  1.97  7031     9   653  6369   601  3582   854  0.13  1219  1312  2969   113 105.0 23.35  55.0 11304 .0076   607   233  1.61  0.98 137.7  99.9 15.00  0.00  0.00  0.00  0.00  0.00  0.00   0.9  0.00  0.00  0.00  0.00
 1982 155   241   231  17.0 -20.0 82.14 14.07  0.69  2.32 115.3  1.36 0.572  1.94  7145     9   654  6482   589  3589   958  0.15  1224  1416  2987   122 105.0 23.90  55.3 11304 .0085   602   232  1.62  0.98 137.9  74.6 10.38  0.00  0.00  0.00  0.00  0.00  0.00   0.9  0.00  0.00  0.00  0.00
 1982 156   242   232  17.8 -20.0 82.49 14.07  0.68  2.32 169.5  1.33 0.569  1.90  7313     9   655  6648   575  3633  1066  0.16  1243  1525  3053   131 105.0 24.48  56.0 11304 .0094   598   231  1.63  0.98 134.2  48.2  6.90  0.00  0.00  0.00  0.00  0.00  0.00   0.4  0.00  0.00  0.00  0.00
 1982 157   243   233  25.5 -20.0 83.00 14.07  0.67  2.15 136.3  1.29 0.566  1.85  7447     9   656  6782   561  3617  1223  0.18  1240  1681  3040   141 105.0 25.32  56.1 11304 .0108   591   230  1.66  0.98 130.9  46.9  6.90  0.00  0.00  0.00  0.02  0.02  0.02   0.3  0.05  0.37  0.00  0.00
 1982 158   244   234  20.2 -20.0 83.41 14.07  0.65  2.04 173.2  1.23 0.563  1.79  7618     9   657  6951   540  3653  1347  0.19  1257  1805  3100   155 105.0 25.98  56.9 11304 .0119   587   228  1.67  0.98 139.6  40.9  5.66  0.00  0.00  0.00  0.12  0.12  0.12   0.4  0.00  0.02  0.00  0.00
 1982 159   245   235  25.8 -20.0 83.93 14.07  0.64  1.73 114.9  1.19 0.559  1.75  7731     9   658  7064   523  3622  1505  0.21  1248  1963  3066   166 105.0 26.83  56.9 11304 .0133   581   227  1.69  0.98 135.7  45.9  6.53  0.00  0.00  0.00  0.19  0.19  0.19   0.1  0.08  0.39  0.00  0.00
 1982 160   246   236  22.8 -20.0 84.38 14.07  0.62  1.56 122.9  1.13 0.556  1.69  7852     9   659  7184   501  3610  1644  0.23  1248  2103  3061   181 105.0 27.58  57.1 11304 .0145   576   226  1.71  0.98 149.4  45.4  5.88  0.00  0.00  0.00  0.33  0.33  0.33   0.3  0.00  0.18  0.00  0.00
 1982 161   247   237  16.4 -20.0 84.71 14.07  0.60  1.29 116.0  1.08 0.554  1.64  7967     9   659  7298   482  3623  1745  0.24  1256  2203  3088   193 105.0 28.12  57.6 11304 .0154   572   225  1.73  0.98 142.2  42.5  5.79  0.00  0.00  0.00  0.44  0.44  0.44   0.5  0.00  0.00  0.00  0.00
 1982 162   248   238  18.0 -20.0 85.07 14.07  0.59  1.18  42.2  1.05 0.551  1.60  8008     9   659  7339   468  3574  1855  0.25  1241  2313  3027   202 105.0 28.71  57.3 11304 .0164   568   224  1.74  0.98 140.5  99.9 14.38  0.00  0.00  0.00  0.49  0.49  0.49   0.3  0.00  0.00  0.00  0.00
 1982 163   249   239  19.8 -20.0 85.46 14.07  0.58  0.97  65.5  1.01 0.549  1.56  8072     9   660  7404   452  3534  1976  0.27  1229  2434  2981   212 105.0 29.37  57.2 11304 .0175   564   223  1.76  0.98 136.3  51.4  7.32  0.00  0.00  0.00  0.58  0.58  0.58   0.2  0.00  0.00  0.00  0.00
 1982 164   250   240  20.9 -20.0 85.88 14.07  0.55  0.80  38.5  0.94 0.546  1.49  8110     9   659  7441   426  3472  2104  0.28  1211  2562  2907   229 105.0 30.05  56.9 11304 .0186   560   222  1.77  0.98 134.6  70.1 10.09  0.00  0.00  0.00  0.65  0.65  0.65   0.3  0.00  0.06  0.00  0.00
 1982 165   251   241  23.9 -20.0 86.36 14.07  0.53  0.66  25.3  0.88 0.543  1.42  8134     9   659  7466   399  3388  2250  0.30  1184  2709  2802   246 105.0 30.84  56.4 11304 .0199   555   221  1.79  0.98 133.9  83.2 12.05  0.00  0.00  0.00  0.71  0.71  0.71   0.3  0.00  0.26  0.00  0.00
 1982 166   252   242  22.5 -20.0 86.81 14.07  0.50  0.55  31.6  0.81 0.541  1.35  8165     9   658  7497   370  3314  2388  0.32  1162  2846  2714   264 105.0 31.58  56.0 11304 .0211   550   220  1.80  0.98 151.8  65.2  8.32  0.00  0.00  0.00  0.76  0.76  0.76   0.3  0.00  0.17  0.00  0.00
 1982 167   253   243  18.6 -20.0 87.18 14.07  0.47  0.46  34.2  0.75 0.538  1.29  8198     9   658  7531   342  3274  2482  0.33  1152  2940  2671   281 105.0 32.19  56.0 11304 .0220   547   219  1.80  0.98 145.7  51.1  6.79  0.00  0.00  0.00  0.80  0.80  0.80   0.3  0.00  0.00  0.00  0.00
 1982 168   254   244  21.1 -20.0 87.60 14.07  0.44  0.38  19.6  0.69 0.536  1.23  8217     9   658  7550   318  3264  2520  0.33  1153  2978  2666   295 105.0 32.89  56.3 11304 .0223   542   218  1.80  0.98 140.6  67.9  9.34  0.00  0.00  0.00  0.83  0.83  0.83   0.1  0.00  0.07  0.00  0.00
 1982 169   255   245  21.1 -20.0 88.02 14.07  0.42  0.32  12.5  0.63 0.534  1.17  8229     9   657  7562   293  3225  2590  0.34  1143  3049  2624   311 105.0 33.58  56.3 11304 .0229   538   217  1.80  0.98 139.0  89.4 12.44  0.00  0.00  0.00  0.86  0.86  0.86   0.4  0.00  0.07  0.00  0.00
 1982 170   256   246  19.2 -20.0 88.41 14.07  0.39  0.27  14.8  0.58 0.529  1.11  8243     9   657  7577   267  3199  2629  0.35  1146  3087  2615   335 105.0 34.21  56.7 11304 .0233   534   216  1.80  0.98 136.0  63.3  9.00  0.00  0.00  0.00  0.88  0.88  0.88   0.2  0.00  0.00  0.00  0.00
 1982 171   257   247  22.8 -19.7 88.86 14.07  0.36  0.22  11.7  0.52 0.524  1.05  8254     9   656  7588   244  3162  2678  0.35  1146  3136  2592   359 105.0 34.96  56.9 11304 .0237   529   215  1.80  0.98 133.1  61.3  8.90  0.00  0.00  0.00  0.90  0.90  0.90   0.2  0.00  0.18  0.00  0.00
 1982 172   258   248  22.2 -16.9 89.31 14.07  0.33  0.17   6.5  0.46 0.520  0.98  8259     9   656  7595   218  3135  2707  0.36  1150  3166  2584   385 105.0 35.69  57.4 11304 .0239   524   213  1.80  0.98 130.9  82.4 12.14  0.00  0.00  0.00  0.93  0.93  0.93   0.1  0.00  0.15  0.00  0.00
 1982 173   259   249  20.8 -14.4 89.72 14.07  0.29  0.11   4.9  0.41 0.515  0.92  8264     9   655  7599   192  3101  2746  0.36  1151  3205  2565   409 105.0 36.37  57.7 11304 .0243   520   212  1.80  0.98 144.3  80.1  9.75  0.00  0.00  0.00  0.95  0.95  0.95   0.2  0.00  0.06  0.00  0.00
 1982 174   260   250  21.7 -12.1 90.40 14.07  0.26  0.05   1.1  0.36 0.511  0.87  8264     9   654  7600   168  3039  2820  0.37  1140  3279  2507   433 105.0 37.08  57.7 11304 .0249   515   211  1.80  0.98 141.3  99.9 15.00  0.00  0.00  0.00  0.98  0.98  0.98   0.4  0.00  0.11  0.00  0.00

*DSSAT Cropping System Model Ver. 4.7.1.001 -release      JUL 13, 2018; 14:27:49
                                                                                
*RUN   2        : DRYLAND  - 60 KG N/HA     CSCER047 KSAS8101    2              
 MODEL          : CSCER047 - Wheat                                              
 EXPERIMENT     : KSAS8101 WH N RESPONSE,KANSAS STATE  3FE(N)*2IR  (DSSAT3)     
 DATA PATH      : C:\DSSAT47\Wheat\                                             
 TREATMENT  2   : DRYLAND  - 60 KG N/HA     CSCER047                            
  
@YEAR DOY   DAS   DAP TMEAN TKILL  GSTD  L#SD PARID PARUD  AWAD  LAID  SAID  CAID  TWAD SDWAD  RWAD  CWAD  LWAD  SWAD  HWAD  HIAD CHWAD  EWAD RSWAD SNWPD SNWLD SNWSD  RS%D  H#AD  HWUD  T#AD  SLAD  RDPD  PTFD  SWXD WAVRD WUPRD  WFTD  WFPD  WFGD  NFTD  NFPD  NFGD NUPRD  TFPD  TFGD VRNFD DYLFD
 1981 289    10     0  12.8  -9.7  0.00  0.00  0.00  0.00   0.0  0.00 0.000  0.00    46    46     0     0     0     0     0  0.00     0     0     0     0     0     0   0.0     0     0   162   -99  0.05  0.98   7.4  99.9  1.00  0.00  0.00  0.00  0.00  0.00  0.00   0.0  0.00  0.00  1.00  0.00
 1981 290    11     1  16.1  -7.4  5.58  0.00  0.00  0.00   0.0  0.00 0.000  0.00    46    46     0     0     0     0     0  0.00     0     0     0     0     0     0   0.0     0     0   162   -99  0.05  0.98   8.7  99.9  1.00  0.00  0.00  0.00  0.00  0.00  0.00   0.0  0.00  0.00  1.00  0.00
 1981 291    12     2   9.4  -7.2  6.54  0.00  0.00  0.00   0.0  0.00 0.000  0.00    46    45     1     0     0     0     0  0.00     0     0     0     0     0     0   0.0     0     0   162   -99  0.07  0.98   9.9  99.9  1.00  0.00  0.00  0.00  0.00  0.00  0.00   0.0  0.00  0.06  0.98  0.00
 1981 292    13     3  12.2  -6.0  7.81  0.00  0.00  0.00   0.0  0.00 0.000  0.00    46    44     2     0     0     0     0  0.00     0     0     0     0     0 .0004   0.0     0     0   162   -99  0.09  0.98  11.8  99.9  1.00  0.00  0.00  0.00  0.00  0.00  0.00   2.0  0.00  0.00  0.98  0.00
 1981 293    14     4  17.5  -6.0  9.69  0.00  0.00  0.00   0.0  0.00 0.000  0.00    46    43     3     0     0     0     0  0.00     0     0     0     0     0 .0019   0.0     0     0   162   -99  0.11  0.98  14.9  99.9  1.00  0.00  0.00  0.00  0.00  0.00  0.00   2.0  0.00  0.00  0.98  0.00
 1981 294    15     5  11.7  -6.0 10.00  0.00  0.00  0.00   0.0  0.00 0.000  0.00    46    42     4     0     0     0     0  0.00     0     0     0     0     0 .0036   0.0     0     0   162   -99  0.13  0.98  16.8  99.9  1.00  0.00  0.00  0.00  0.00  0.00  0.00   2.0  0.00  0.00  0.97  0.00
 1981 295    16     6   6.2  -7.1 10.13  0.13  0.00  0.00   0.0  0.00 0.000  0.00    46    41     4     1     1     0     0  0.00     0     0     0     0     0 .0048   0.0     0     0   162   400  0.14  0.75  17.4  99.9  1.00  0.00  0.00  0.00  0.00  0.00  0.00   2.0  0.00  0.38  0.95  0.50
 1981 296    17     7   1.9  -8.5 10.17  0.17  0.00  0.90   0.1  0.00 0.000  0.00    46    40     5     1     1     0     0  0.00     0     0     0     0     0 .0053   9.6     0     0   162   399  0.14  0.75  17.1  99.9 15.00  0.00  0.00  0.00  0.00  0.00  0.00   2.0  0.61  0.81  0.92  0.50
 1981 297    18     8   6.1  -9.5 10.30  0.30  0.00  2.32   0.1  0.01 0.000  0.01    46    39     5     2     1     1     0  0.00     0     0     0     0     0 .0066   9.7     0     0   162   399  0.15  0.75  17.8  99.9 15.00  0.00  0.00  0.00  0.00  0.00  0.00   2.0  0.00  0.39  0.90  0.51
 1981 298    19     9   8.4 -10.0 10.47  0.47  0.01  2.32   0.3  0.01 0.001  0.01    47    37     6     4     3     2     0  0.00     0     0     0     0     0 .0087  10.5     0     0   162   399  0.16  0.75  21.5  99.9 15.00  0.00  0.00  0.00  0.00  0.00  0.00   1.5  0.00  0.16  0.88  0.51
 1981 299    20    10   7.8 -10.5 10.64  0.64  0.01  2.32   1.3  0.01 0.001  0.02    48    35     6     7     4     3     0  0.00     0     0     1     0     0 .0109  20.9     0     0   162   399  0.17  0.75  22.8  99.9  9.54  0.00  0.00  0.00  0.00  0.00  0.00   2.0  0.00  0.22  0.86  0.52
 1981 300    21    11  13.7 -10.4 10.93  0.93  0.02  2.32   1.8  0.02 0.002  0.03    49    31     7    12     6     6     0  0.00     0     0     3     0     0 .0150  24.0     0     0   162   399  0.19  0.75  24.4  99.9  6.36  0.00  0.00  0.00  0.00  0.00  0.00   1.3  0.00  0.00  0.86  0.52
 1981 301    22    12  16.2 -10.2 11.27  1.27  0.03  2.32   2.8  0.04 0.003  0.04    52    26     8    18     9     9     0  0.00     0     0     5     0     0 .0205  26.6     0     0   162   399  0.21  0.75  26.4  99.9  4.60  0.00  0.00  0.00  0.00  0.00  0.00   1.0  0.00  0.00  0.86  0.53
 1981 302    23    13  17.5 -10.0 11.63  1.63  0.04  2.32   4.3  0.05 0.004  0.05    56    20     9    27    13    14     0  0.00     0     0     8     0     0 .0274  30.2     0     0   162   397  0.23  0.75  28.6  99.9  3.33  0.00  0.00  0.00  0.00  0.00  0.00   0.9  0.00  0.00  0.86  0.53
 1981 303    24    14  16.1  -9.9 11.97  1.97  0.05  2.32   1.4  0.06 0.005  0.07    57    15    10    32    16    16     0  0.00     0     0     9     0     0 .0347  26.7     0     0   162   395  0.25  0.75  30.8  99.9 12.40  0.00  0.00  0.00  0.00  0.00  0.00   1.0  0.00  0.00  0.86  0.53
[...]
 1982 107   193   183  10.0 -20.0 26.20 10.76  0.62  2.32 180.9  1.14 0.134  1.28  1502     9   257  1235   371   865     0 -0.00     0     0   660     0 78.74 3.140  53.5     0     0  1166   308  0.96  0.80  77.8  31.7  2.34  0.00  0.00  0.00  0.00  0.00  0.00   2.0  0.00  0.00  0.00  0.27
 1982 108   194   184  12.2 -20.0 26.35 10.88  0.64  2.32 175.1  1.21 0.143  1.36  1662     9   278  1375   395   979     0 -0.00     0     0   761     0 79.19 3.297  55.3     0     0  1191   307  0.97  0.80  75.4  29.5  2.43  0.00  0.00  0.00  0.00  0.00  0.00   1.7  0.00  0.00  0.00  0.26
 1982 109   195   185  15.3 -20.0 26.54 11.04  0.67  2.32 176.1  1.30 0.155  1.46  1823     9   299  1515   426  1089     0 -0.00     0     0   852     0 79.75 3.510  56.2     0     0  1222   306  0.98  0.80  75.7  28.3  2.49  0.00  0.00  0.00  0.00  0.00  0.00   1.4  0.00  0.00  0.00  0.26
 1982 110   196   186   6.7 -20.0 26.54 11.11  0.68  2.32 190.3  1.33 0.158  1.49  1998     9   322  1666   435  1231     0 -0.00     0     0   990     0 80.44 3.609  59.4     0     0  1222   305  0.99  0.80 119.9  50.3  3.31  0.00  0.00  0.00  0.00  0.00  0.00   2.0  0.00  0.33  0.00  0.00
 1982 111   197   187   7.0 -20.0 26.54 11.19  0.68  2.32 176.5  1.35 0.161  1.52  2159     9   343  1807   445  1363     0 -0.00     0     0  1115     0 81.16 3.721  61.7     0     0  1222   305  0.99  0.80 107.7  47.1  4.14  0.00  0.00  0.00  0.00  0.00  0.00   2.0  0.00  0.30  0.00  0.00
 1982 112   198   188   8.6 -20.0 26.54 11.28  0.69  2.32 209.2  1.40 0.167  1.56  2351     9   368  1974   459  1515     0 -0.00     0     0  1258     0 82.06 3.869  63.7     0     0  1222   304  1.00  0.80 101.3  35.9  3.58  0.00  0.00  0.00  0.00  0.00  0.00   2.0  0.00  0.14  0.00  0.00
 1982 113   199   189  11.7 -20.0 26.54 11.40  0.71  2.32 182.7  1.46 0.176  1.64  2518     9   389  2120   483  1637     0 -0.00     0     0  1365     0 83.28 4.084  64.4     0     0  1222   303  1.01  0.80  97.7  36.6  4.05  0.00  0.00  0.00  0.00  0.00  0.00   2.0  0.00  0.00  0.00  0.00
 1982 114   200   190  16.4 -20.0 26.54 11.57  0.73  2.32 163.2  1.55 0.189  1.74  2667     9   407  2250   516  1734     0 -0.00     0     0  1439     0 84.99 4.402  63.9     0     0  1222   301  1.02  0.81  94.6  36.4  4.40  0.00  0.00  0.00  0.00  0.00  0.00   2.0  0.00  0.00  0.00  0.00
 1982 115   201   191  13.1 -20.0 26.54 11.71  0.75  2.32 103.6  1.63 0.200  1.83  2761     9   419  2332   543  1790     0 -0.00     0     0  1476     0 86.36 4.668  63.3     0     0  1222   300  1.03  0.81  93.5  61.5  7.89  0.00  0.00  0.00  0.00  0.00  0.00   2.0  0.00  0.00  0.00  0.00
 1982 116   202   192  14.1 -20.0 30.44 11.86  0.76  2.32 223.1  1.70 0.212  1.91  2965     9   444  2512   572  1941     0 -0.00     0     0  1605     0 87.85 4.965  63.9     0     0  1202   297  1.04  0.81  89.3  26.3  3.62  0.00  0.00  0.00  0.00  0.00  0.00   2.0  0.00  0.00  0.00  0.00
 1982 117   203   193  10.6 -20.0 30.94 11.97  0.78  2.32  67.3  1.76 0.221  1.98  3026     9   451  2566   594  1972     0 -0.00     0     0  1620     0 88.97 5.200  63.1     0     0  1187   296  1.05  0.81 127.4  99.9 13.95  0.00  0.00  0.00  0.00  0.00  0.00   2.0  0.00  0.00  0.00  0.00
 1982 118   204   194   8.4 -20.0 31.33 12.06  0.78  2.32  13.5  1.79 0.226  2.02  3038     9   453  2576   609  1968     0 -0.00     0     0  1610     0 89.86 5.389  62.5     0     0  1176   294  1.06  0.82 125.2  99.9 15.00  0.00  0.00  0.00  0.00  0.00  0.00   2.0  0.00  0.16  0.00  0.00
 1982 119   205   195  10.0 -20.0 31.79 12.17  0.79  2.32  61.6  1.84 0.235  2.08  3093     9   459  2625   630  1996     0 -0.00     0     0  1621     0 90.92 5.615  61.8     0     0  1163   293  1.07  0.82 128.7  99.9 15.00  0.00  0.00  0.00  0.00  0.00  0.00   2.0  0.00  0.00  0.00  0.00
 1982 120   206   196  13.9 -20.0 32.44 12.31  0.80  2.32  96.3  1.92 0.248  2.16  3181     9   469  2703   659  2043     0 -0.00     0     0  1644     0 92.41 5.934  60.8     0     0  1145   291  1.08  0.82 121.6  83.7  9.29  0.00  0.00  0.00  0.00  0.00  0.00   2.0  0.00  0.00  0.00  0.00
 1982 121   207   197  16.1 -20.0 33.20 12.48  0.82  2.32 127.6  2.00 0.263  2.26  3297     9   482  2806   694  2112     0 -0.00     0     0  1681     0 94.14 6.313  59.9     0     0  1124   288  1.09  0.82 112.9  55.4  6.77  0.00  0.00  0.00  0.00  0.00  0.00   2.0  0.00  0.00  0.00  0.00
 1982 122   208   198  18.0 -20.0 34.04 12.67  0.83  2.32 164.9  2.09 0.280  2.37  3448     9   499  2940   730  2210     0 -0.00     0     0  1745     0 96.09 6.748  59.4     0     0  1102   286  1.11  0.82 108.4  39.4  5.16  0.00  0.00  0.00  0.00  0.00  0.00   2.0  0.00  0.00  0.00  0.00
 1982 123   209   199  22.0 -20.0 35.07 12.90  0.84  2.32 189.6  2.17 0.298  2.47  3622     9   518  3094   767  2327     0 -0.00     0     0  1824     0 98.47 7.296  58.9     0     0  1076   283  1.13  0.83 105.0  30.6  4.28  0.00  0.00  0.00  0.00  0.00  0.00   2.0  0.00  0.13  0.00  0.00
 1982 124   210   200  24.5 -20.0 36.21 13.16  0.85  2.32 223.6  2.25 0.315  2.56  3827     9   540  3277   802  2476     0 -0.00     0     0  1936     0 101.1 7.930  59.1     0     0  1049   280  1.15  0.83 100.8  23.8  3.59  0.00  0.00  0.00  0.00  0.00  0.00   2.0  0.00  0.30  0.00  0.00
 1982 125   211   201  18.0 -20.0 37.06 13.35  0.86  2.32  52.3  2.33 0.329  2.66  3874     9   545  3319   840  2479     0 -0.00     0     0  1917     0 103.1 8.418  57.8     0     0  1030   278  1.16  0.84 100.6  99.9 15.00  0.00  0.00  0.00  0.00  0.00  0.00   2.0  0.00  0.00  0.00  0.00
 1982 126   212   202  10.9 -20.0 37.57 13.46  0.87  2.32 141.9  2.38 0.342  2.73  4005     9   559  3437   864  2573     0 -0.00     0     0  1983     0 104.3 8.714  57.7     0     0  1019   276  1.17  0.84 128.0  63.8  7.99  0.00  0.00  0.00  0.00  0.00  0.00   2.0  0.00  0.00  0.00  0.00
 1982 127   213   203  14.4 -20.0 38.24 13.62  0.88  2.32 266.7  2.45 0.359  2.81  4253     9   584  3660   894  2766     0 -0.00     0     0  2135     0 105.9 9.117  58.3     0     0  1005   274  1.18  0.84 123.7  29.4  3.90  0.00  0.00  0.00  0.00  0.00  0.00   2.0  0.00  0.00  0.00  0.00
 1982 128   214   204  20.5 -20.0 39.20 13.83  0.89  2.32 275.1  2.55 0.383  2.93  4508     9   609  3889   935  2954     0 -0.00     0     0  2264     0 108.2 9.717  58.2     0     0   985   272  1.20  0.84 114.1  23.2  3.50  0.00  0.00  0.00  0.00  0.00  0.00   2.0  0.00  0.04  0.00  0.00
 1982 129   215   205  22.5 -20.0 40.29 14.07  0.89  2.32 250.4  2.63 0.407  3.04  4739     9   631  4099   975  3124     0 -0.00     0     0  2374     0 110.7 10.40  57.9     0     0   966   270  1.22  0.85 109.7  23.8  3.88  0.00  0.00  0.00  0.00  0.00  0.00   2.0  0.00  0.17  0.00  0.00
 1982 130   216   206  22.5 -20.0 41.47 14.07  0.89  2.32 185.3  2.59 0.431  3.02  4913     9   647  4257   967  3282     0 -0.00     0     0  2429     8 110.7 11.11  57.2     0     0   947   268  1.23  0.85 106.7  31.4  5.45  0.00  0.00  0.00  0.00  0.00  0.00   2.0  0.00  0.17  0.00  0.00
 1982 131   217   207  22.0 -20.0 42.63 14.07  0.89  2.32 228.9  2.55 0.462  3.01  5128     9   666  4453   959  3479     0 -0.00     0     0  2495    15 110.7 11.82  56.2     0     0   930   266  1.25  0.86 103.8  24.8  4.54  0.00  0.00  0.00  0.00  0.00  0.00   2.0  0.00  0.13  0.00  0.00
 1982 132   218   208  18.9 -20.0 43.62 14.07  0.88  2.32 104.7  2.52 0.474  2.99  5226     9   674  4543   953  3569     0 -0.00     0     0  2529    22 110.7 12.45  55.9     0     0   915   264  1.27  0.86 129.0  72.4 10.99  0.00  0.00  0.00  0.00  0.00  0.00   2.0  0.00  0.00  0.00  0.00
 1982 133   219   209  20.0 -20.0 44.68 14.07  0.88  2.32 110.4  2.48 0.488  2.97  5330     9   682  4639   945  3666     0 -0.00     0     0  2565    29 110.7 13.12  55.6     0     0   901   262  1.28  0.87 126.8  66.0 10.31  0.00  0.00  0.00  0.00  0.00  0.00   2.0  0.00  0.00  0.00  0.00
 1982 134   220   210  17.8 -20.0 45.61 14.07  0.88  2.32 118.1  2.45 0.503  2.95  5442     9   690  4742   939  3769     0 -0.00     0     0  2602    35 110.7 13.73  55.3     0     0   888   261  1.30  0.87 124.8  63.4 10.18  0.00  0.00  0.00  0.00  0.00  0.00   2.0  0.00  0.00  0.00  0.00
 1982 135   221   211  17.8 -20.0 46.54 14.07  0.87  2.32 269.9  2.42 0.542  2.96  5698     9   709  4979   932  4007     0 -0.00     0     0  2679    41 110.7 14.34  54.2     0     0   876   259  1.31  0.88 130.5  28.8  4.47  0.00  0.00  0.00  0.00  0.00  0.00   2.0  0.00  0.00  0.00  0.00
 1982 136   222   212  19.5 -20.0 47.57 14.07  0.87  2.32 115.2  2.38 0.557  2.94  5807     9   717  5081   925  4109     0 -0.00     0     0  2716    48 110.7 15.03  54.0     0     0   863   258  1.33  0.88 129.4  65.3 10.52  0.00  0.00  0.00  0.00  0.00  0.00   2.0  0.00  0.00  0.00  0.00
 1982 137   223   213  19.5 -20.0 48.59 14.07  0.86  2.32 166.1  2.35 0.579  2.93  5965     9   727  5229   917  4258     0 -0.00     0     0  2767    54 110.7 15.73  53.5     0     0   851   256  1.35  0.89 130.1  45.4  7.36  0.00  0.00  0.00  0.00  0.00  0.00   2.0  0.00  0.00  0.00  0.00
 1982 138   224   214  20.3 -20.0 49.66 14.07  0.86  2.32 251.5  2.32 0.615  2.93  6205     9   743  5453   909  4381     0 -0.00   102   102  2842    61 110.7 16.47  52.7     0     0   839   255  1.36  0.89 126.0  28.3  4.79  0.00  0.00  0.00  0.00  0.00  0.00   2.0  0.00  0.02  0.00  0.00
 1982 139   225   215  23.6 -20.0 53.43 14.07  0.86  2.32 234.4  2.28 0.648  2.92  6429     9   756  5664   899  4315     0 -0.00   381   198  2913    70 110.7 17.34  52.1     0     0   826   253  1.38  0.90 121.7  27.6  4.96  0.00  0.00  0.00  0.00  0.00  0.00   2.0  0.00  0.24  0.00  0.00
 1982 140   226   216  21.1 -20.0 57.65 14.07  0.85  2.32 139.8  2.25 0.665  2.91  6563     9   762  5792   893  4228     0 -0.00   595   256  2958    76 110.7 18.14  51.7     0     0   815   252  1.40  0.92 119.6  48.1  8.94  0.00  0.00  0.00  0.00  0.00  0.00   2.0  0.00  0.07  0.00  0.00
 1982 141   227   217  18.0 -20.0 63.14 14.07  0.85  2.32 206.4  2.22 0.694  2.91  6764     9   770  5985   888  4258     0 -0.00   758   344  3021    81 110.7 18.83  51.2     0     0   805   250  1.41  0.93 138.6  40.2  6.50  0.00  0.00  0.00  0.00  0.00  0.00   2.0  0.00  0.00  0.00  0.00
 1982 142   228   218  16.1 -20.0 70.19 14.07  0.85  2.32 166.2  2.20 0.718  2.92  6926     9   774  6143   883  4227     0 -0.00   948   416  3073    86 110.7 19.45  50.7     0     0   797   249  1.43  0.95 134.7  50.6  8.49  0.00  0.00  0.00  0.00  0.00  0.00   2.0  0.00  0.00  0.00  0.00
 1982 143   229   219  18.0 -20.0 71.58 14.07  0.84  2.32 226.4  2.17 0.751  2.92  7148     9   778  6361   877  4268     2  0.00  1123   518  3141    91 110.7 20.15  50.1 15143 .0000   789   248  1.44  0.97 127.2  33.4  5.98  0.00  0.00  0.00  0.00  0.00  0.00   2.0  0.00  0.00  0.00  0.00
 1982 144   230   220  18.7 -20.0 73.01 14.07  0.84  2.32  89.8  2.15 0.747  2.89  7237     9   778  6449   871  4170    26  0.00  1286   541  3211    96 110.7 20.88  50.7 15143 .0002   781   247  1.46  0.98 126.1  83.8 15.00  0.00  0.00  0.00  0.00  0.00  0.00   2.0  0.00  0.00  0.00  0.00
 1982 145   231   221  20.0 -20.0 74.55 14.07  0.83  2.32 133.2  2.12 0.742  2.86  7368     9   779  6580   864  4231    75  0.01  1308   590  3299   102 110.7 21.65  51.5 15143 .0005   772   245  1.47  0.98 140.6  61.3  9.97  0.00  0.00  0.00  0.00  0.00  0.00   2.0  0.00  0.00  0.00  0.00
 1982 146   232   222  16.4 -20.0 75.81 14.07  0.83  2.32 244.8  2.10 0.738  2.83  7610     9   782  6820   859  4364   135  0.02  1355   650  3483   107 110.7 22.29  53.0 15143 .0009   765   244  1.49  0.98 154.7  39.2  5.81  0.00  0.00  0.00  0.00  0.00  0.00   2.0  0.00  0.00  0.00  0.00
 1982 147   233   223  18.4 -20.0 77.22 14.07  0.83  2.32 270.9  2.07 0.734  2.81  7878     9   784  7085   853  4498   220  0.03  1402   736  3669   112 110.7 23.01  54.3 15143 .0015   758   243  1.50  0.98 149.5  32.4  4.98  0.00  0.00  0.00  0.00  0.00  0.00   2.0  0.00  0.00  0.00  0.00
 1982 148   234   224  23.3 -20.0 79.02 14.07  0.82  2.32 148.8  2.04 0.728  2.77  8025     9   785  7231   844  4506   356  0.05  1406   871  3686   119 110.7 23.93  54.6 15143 .0023   750   242  1.52  0.98 137.5  49.8  8.35  0.00  0.00  0.00  0.00  0.00  0.00   2.0  0.00  0.22  0.00  0.00
 1982 149   235   225  21.4 -20.0 80.17 14.07  0.82  2.32 218.6  2.01 0.723  2.74  8241     9   787  7445   837  4549   511  0.07  1422  1026  3751   126 110.7 24.77  55.1 15143 .0034   742   240  1.54  0.98 155.9  40.0  5.92  0.00  0.00  0.00  0.00  0.00  0.00   2.0  0.00  0.09  0.00  0.00
 1982 150   236   226  20.5 -20.0 80.58 14.07  0.82  2.32 167.1  2.00 0.719  2.72  8406     9   788  7609   836  4545   680  0.09  1421  1195  3748   128 110.7 25.57  55.1 15143 .0045   735   239  1.56  0.98 148.7  50.6  7.88  0.00  0.00  0.00  0.00  0.00  0.00   2.0  0.00  0.04  0.00  0.00
 1982 151   237   227  17.8 -20.0 80.94 14.07  0.82  2.32 135.5  1.99 0.715  2.71  8540     9   789  7742   836  4534   825  0.11  1417  1341  3737   130 110.7 26.27  55.1 15143 .0054   730   238  1.57  0.98 153.9  68.8 10.36  0.00  0.00  0.00  0.00  0.00  0.00   2.0  0.00  0.00  0.00  0.00
 1982 152   238   228  12.8 -20.0 81.19 14.07  0.81  2.32 268.6  1.98 0.712  2.70  8806     9   792  8005   836  4666   909  0.11  1462  1425  3918   131 110.7 26.78  56.3 15143 .0060   726   237  1.58  0.98 139.2  34.5  5.74  0.00  0.00  0.00  0.00  0.00  0.00   2.0  0.00  0.00  0.00  0.00
 1982 153   239   229  15.2 -20.0 81.50 14.07  0.81  2.32 102.0  1.94 0.709  2.65  8906     9   792  8105   823  4653  1029  0.13  1460  1544  3908   140 110.7 27.38  56.3 15143 .0068   722   236  1.59  0.98 137.6  86.9 14.70  0.00  0.00  0.00  0.00  0.00  0.00   1.1  0.00  0.00  0.00  0.00
 1982 154   240   230  15.0 -20.0 81.80 14.07  0.80  2.32  70.3  1.90 0.706  2.60  8975     9   793  8174   806  4620  1144  0.14  1452  1659  3873   152 110.7 27.98  56.3 15143 .0076   718   236  1.61  0.98 137.9  99.9 15.00  0.00  0.00  0.00  0.00  0.00  0.00   1.3  0.00  0.00  0.00  0.00
 1982 155   241   231  17.0 -20.0 82.14 14.07  0.79  2.32 132.8  1.85 0.703  2.56  9106     9   793  8304   790  4615  1283  0.15  1453  1798  3875   163 110.7 28.65  56.5 15143 .0085   713   235  1.62  0.98 138.1  64.2 10.84  0.00  0.00  0.00  0.00  0.00  0.00   0.7  0.00  0.00  0.00  0.00
 1982 156   242   232  17.8 -20.0 82.49 14.07  0.78  2.32 195.8  1.80 0.699  2.50  9300     9   795  8496   771  4652  1429  0.17  1468  1944  3934   175 110.7 29.35  57.1 15143 .0094   708   234  1.63  0.98 134.5  41.5  7.19  0.00  0.00  0.00  0.00  0.00  0.00   0.6  0.00  0.00  0.00  0.00
 1982 157   243   233  25.5 -20.0 83.00 14.07  0.77  2.19 160.6  1.75 0.694  2.44  9458     9   796  8653   752  4615  1638  0.19  1459  2154  3894   188 110.7 30.37  57.1 15143 .0108   702   233  1.66  0.98 131.1  40.2  7.16  0.00  0.00  0.00  0.00  0.00  0.00   0.2  0.05  0.37  0.00  0.00
 1982 158   244   234  20.2 -20.0 83.41 14.07  0.76  2.05 202.2  1.68 0.690  2.37  9658     9   798  8851   724  4642  1804  0.20  1473  2320  3945   207 110.7 31.17  57.7 15143 .0119   697   231  1.67  0.98 139.2  34.8  5.84  0.00  0.00  0.00  0.12  0.12  0.12   0.2  0.00  0.02  0.00  0.00
 1982 159   245   235  25.8 -20.0 83.93 14.07  0.75  1.67 130.0  1.61 0.686  2.30  9786     9   798  8979   701  4582  2016  0.22  1456  2531  3876   222 110.7 32.20  57.5 15143 .0133   691   230  1.69  0.98 135.4  38.9  6.73  0.00  0.00  0.00  0.22  0.22  0.22   0.2  0.08  0.39  0.00  0.00
 1982 160   246   236  22.8 -20.0 84.38 14.07  0.73  1.51 139.6  1.54 0.681  2.22  9924     9   799  9115   672  4549  2203  0.24  1450  2718  3845   242 110.7 33.11  57.6 15143 .0145   686   229  1.71  0.98 149.2  38.3  6.02  0.00  0.00  0.00  0.35  0.35  0.35   0.3  0.00  0.18  0.00  0.00
 1982 161   247   237  16.4 -20.0 84.71 14.07  0.71  1.25 132.5  1.47 0.678  2.15 10054     9   800  9245   646  4549  2337  0.25  1454  2852  3858   259 110.7 33.76  58.0 15143 .0154   682   228  1.73  0.98 142.2  35.8  5.91  0.00  0.00  0.00  0.46  0.46  0.46   0.4  0.00  0.00  0.00  0.00
 1982 162   248   238  18.0 -20.0 85.07 14.07  0.70  1.10  46.8  1.43 0.675  2.10 10100     9   800  9291   627  4476  2485  0.27  1432  3000  3768   271 110.7 34.49  57.7 15143 .0164   678   227  1.74  0.98 140.5  87.1 14.58  0.00  0.00  0.00  0.53  0.53  0.53   0.1  0.00  0.00  0.00  0.00
 1982 163   249   239  19.8 -20.0 85.46 14.07  0.68  0.91  72.9  1.34 0.672  2.02 10171     9   800  9363   594  4413  2647  0.28  1416  3162  3698   292 110.7 35.28  57.6 15143 .0175   674   226  1.76  0.98 137.3  43.2  7.39  0.00  0.00  0.00  0.61  0.61  0.61   0.3  0.00  0.00  0.00  0.00
 1982 164   250   240  20.9 -20.0 85.88 14.07  0.66  0.75  42.6  1.26 0.668  1.93 10213     9   799  9404   559  4322  2818  0.30  1391  3334  3591   314 110.7 36.11  57.3 15143 .0186   669   225  1.77  0.98 135.2  59.1 10.27  0.00  0.00  0.00  0.68  0.68  0.68   0.1  0.00  0.06  0.00  0.00
 1982 165   251   241  23.9 -20.0 86.36 14.07  0.63  0.62  28.1  1.17 0.664  1.84 10240     9   799  9432   523  4202  3014  0.32  1356  3530  3445   336 110.7 37.06  56.6 15143 .0199   664   224  1.79  0.98 134.2  69.6 12.19  0.00  0.00  0.00  0.73  0.73  0.73   0.2  0.00  0.26  0.00  0.00
 1982 166   252   242  22.5 -20.0 86.81 14.07  0.60  0.52  35.3  1.08 0.661  1.74 10274     9   798  9466   484  4169  3102  0.33  1351  3617  3416   360 110.7 37.96  56.9 15143 .0205   659   223  1.80  0.98 152.1  54.2  8.37  0.00  0.00  0.00  0.78  0.78  0.78   0.2  0.00  0.17  0.00  0.00
 1982 167   253   243  18.6 -20.0 87.18 14.07  0.57  0.43  38.5  0.99 0.658  1.65 10311     9   798  9504   447  4135  3193  0.34  1346  3709  3385   383 110.7 38.71  57.1 15143 .0211   655   222  1.80  0.98 146.1  42.4  6.81  0.00  0.00  0.00  0.81  0.81  0.81   0.3  0.00  0.00  0.00  0.00
 1982 168   254   244  21.1 -20.0 87.60 14.07  0.54  0.36  22.1  0.92 0.655  1.57 10333     9   798  9526   416  4131  3227  0.34  1350  3743  3392   402 110.7 39.55  57.5 15143 .0213   650   221  1.80  0.98 141.1  56.0  9.31  0.00  0.00  0.00  0.85  0.85  0.85   0.1  0.00  0.07  0.00  0.00
 1982 169   255   245  21.1 -20.0 88.02 14.07  0.51  0.30  14.2  0.84 0.651  1.49 10346     9   797  9540   382  4096  3296  0.35  1343  3811  3358   423 110.7 40.39  57.7 15143 .0218   645   220  1.80  0.98 139.1  73.2 12.33  0.00  0.00  0.00  0.87  0.87  0.87   0.2  0.00  0.07  0.00  0.00
 1982 170   256   246  19.2 -20.0 88.41 14.07  0.48  0.25  17.0  0.76 0.646  1.41 10362     9   796  9556   348  4075  3328  0.35  1351  3844  3363   454 110.7 41.15  58.2 15143 .0220   640   219  1.80  0.98 135.6  51.4  8.87  0.00  0.00  0.00  0.89  0.89  0.89   0.1  0.00  0.00  0.00  0.00
 1982 171   257   247  22.8 -19.7 88.86 14.07  0.44  0.21  13.5  0.69 0.640  1.33 10374     9   796  9570   317  4049  3361  0.35  1358  3876  3362   484 110.7 42.06  58.7 15143 .0222   635   218  1.80  0.98 132.2  49.3  8.73  0.00  0.00  0.00  0.91  0.91  0.91   0.1  0.00  0.18  0.00  0.00
 1982 172   258   248  22.2 -16.9 89.31 14.07  0.41  0.16   7.5  0.61 0.634  1.25 10381     9   795  9577   282  4007  3410  0.36  1360  3926  3341   517 110.7 42.94  59.1 15143 .0225   629   217  1.80  0.98 129.6  65.7 11.86  0.00  0.00  0.00  0.93  0.93  0.93   0.2  0.00  0.15  0.00  0.00
 1982 173   259   249  20.8 -14.4 89.72 14.07  0.37  0.10   5.7  0.54 0.628  1.16 10386     9   794  9583   248  3985  3433  0.36  1369  3948  3344   548 110.7 43.77  59.7 15143 .0227   624   216  1.80  0.98 142.4  63.4 10.41  0.00  0.00  0.00  0.96  0.96  0.96   0.1  0.00  0.06  0.00  0.00
 1982 174   260   250  21.7 -12.1 90.40 14.07  0.33  0.04   1.3  0.46 0.622  1.09 10386     9   793  9584   217  3928  3496  0.36  1365  4011  3301   578 110.7 44.63  59.9 15143 .0231   619   215  1.80  0.98 139.5  99.9 15.00  0.00  0.00  0.00  0.98  0.98  0.98   0.3  0.00  0.11  0.00  0.00
